/*---------------------------------------------------------------------------*\
  =========                 |
  \\      /  F ield         | OpenFOAM: The Open Source CFD Toolbox
   \\    /   O peration     | Website:  https://openfoam.org
    \\  /    A nd           | Version:  dev
     \\/     M anipulation  |
\*---------------------------------------------------------------------------*/
Build  : dev-c5b6e666c278
Exec   : rhoSimpleFoam
Date   : Feb 17 2021
Time   : 15:38:31
Host   : "Kubuntu-Taha"
PID    : 24591
I/O    : uncollated
Case   : /home/taha/OpenFOAM/taha-dev/run/aerofoilNACA0012
nProcs : 1
sigFpe : Enabling floating point exception trapping (FOAM_SIGFPE).
fileModificationChecking : Monitoring run-time modified files using timeStampMaster (fileModificationSkew 10)
allowSystemOperations : Allowing user-supplied system call operations

// * * * * * * * * * * * * * * * * * * * * * * * * * * * * * * * * * * * * * //
Create time

Using #calcEntry at line 20 in file "/home/taha/OpenFOAM/taha-dev/run/aerofoilNACA0012/system/controlDict/functions/forceCoeffsCompressible/forceCoeffsCompressible"
Using #codeStream with "/home/taha/OpenFOAM/taha-dev/run/aerofoilNACA0012/dynamicCode/platforms/linux64GccDPInt32Opt/lib/libcodeStream_1cdcbfab46358bbcf2b09b5ffdb81074e9595ac2.so"
codeStream : dictionary:"/home/taha/OpenFOAM/taha-dev/run/aerofoilNACA0012/system/controlDict/functions/forceCoeffsCompressible/forceCoeffsCompressible" master-only-reading:1
Using #codeStream at line 21 in file "/home/taha/OpenFOAM/taha-dev/run/aerofoilNACA0012/system/controlDict/functions/forceCoeffsCompressible/forceCoeffsCompressible"
Using #codeStream with "/home/taha/OpenFOAM/taha-dev/run/aerofoilNACA0012/dynamicCode/platforms/linux64GccDPInt32Opt/lib/libcodeStream_4e53ea6683014d43aaae7f1655fdc419be73fa84.so"
codeStream : dictionary:"/home/taha/OpenFOAM/taha-dev/run/aerofoilNACA0012/system/controlDict/functions/forceCoeffsCompressible/forceCoeffsCompressible" master-only-reading:1
Using #codeStream at line 27 in file "/home/taha/OpenFOAM/taha-dev/run/aerofoilNACA0012/system/controlDict/functions/forceCoeffsCompressible/forceCoeffsCompressible"
Using #codeStream with "/home/taha/OpenFOAM/taha-dev/run/aerofoilNACA0012/dynamicCode/platforms/linux64GccDPInt32Opt/lib/libcodeStream_3a1ca79d5a971693a00301e3a44b841419f9a7ca.so"
codeStream : dictionary:"/home/taha/OpenFOAM/taha-dev/run/aerofoilNACA0012/system/controlDict/functions/forceCoeffsCompressible/forceCoeffsCompressible" master-only-reading:1
Using #codeStream at line 33 in file "/home/taha/OpenFOAM/taha-dev/run/aerofoilNACA0012/system/controlDict/functions/forceCoeffsCompressible/forceCoeffsCompressible"
Using #codeStream with "/home/taha/OpenFOAM/taha-dev/run/aerofoilNACA0012/dynamicCode/platforms/linux64GccDPInt32Opt/lib/libcodeStream_2d58ca55a9c3d5f23a93b18c140764657d312776.so"
codeStream : dictionary:"/home/taha/OpenFOAM/taha-dev/run/aerofoilNACA0012/system/controlDict/functions/forceCoeffsCompressible/forceCoeffsCompressible" master-only-reading:1
Create mesh for time = 0


SIMPLE: Convergence criteria found
        p: tolerance 1e-06
        U: tolerance 1e-05
        "(k|omega|e)": tolerance 1e-05

Reading thermophysical properties

Selecting thermodynamics package 
{
    type            hePsiThermo;
    mixture         pureMixture;
    transport       const;
    thermo          hConst;
    equationOfState perfectGas;
    specie          specie;
    energy          sensibleInternalEnergy;
}

Reading field U

Using #calcEntry at line 20 in file "/home/taha/OpenFOAM/taha-dev/run/aerofoilNACA0012/0/U"
codeStream : dictionary:"/home/taha/OpenFOAM/taha-dev/run/aerofoilNACA0012/0/U" master-only-reading:0
Using #codeStream at line 21 in file "/home/taha/OpenFOAM/taha-dev/run/aerofoilNACA0012/0/U"
codeStream : dictionary:"/home/taha/OpenFOAM/taha-dev/run/aerofoilNACA0012/0/U" master-only-reading:0
Using #codeStream at line 27 in file "/home/taha/OpenFOAM/taha-dev/run/aerofoilNACA0012/0/U"
codeStream : dictionary:"/home/taha/OpenFOAM/taha-dev/run/aerofoilNACA0012/0/U" master-only-reading:0
Using #codeStream at line 33 in file "/home/taha/OpenFOAM/taha-dev/run/aerofoilNACA0012/0/U"
codeStream : dictionary:"/home/taha/OpenFOAM/taha-dev/run/aerofoilNACA0012/0/U" master-only-reading:0
Reading/calculating face flux field phi

pressureControl
    pMax 200000
    pMin 10000

Creating turbulence model

Selecting turbulence model type RAS
Selecting RAS turbulence model kOmegaSST
Selecting patchDistMethod meshWave
RAS
{
    model           kOmegaSST;
    turbulence      on;
    printCoeffs     on;
    alphaK1         0.85;
    alphaK2         1;
    alphaOmega1     0.5;
    alphaOmega2     0.856;
    gamma1          0.5555555556;
    gamma2          0.44;
    beta1           0.075;
    beta2           0.0828;
    betaStar        0.09;
    a1              0.31;
    b1              1;
    c1              10;
    F3              false;
}

Creating thermophysical transport model

Selecting thermophysical transport type RAS
Selecting default RAS thermophysical transport model unityLewisEddyDiffusivity
No MRF models present

Creating finite volume options from "constant/fvOptions"

Selecting finite volume options model type limitTemperature
    Source: limitT
    - selecting all cells
    - selected 16200 cell(s) with volume 13895.80017

Starting time loop

Time = 1

DILUPBiCGStab:  Solving for Ux, Initial residual = 0.9999999989, Final residual = 0.0368624012, No Iterations 2
DILUPBiCGStab:  Solving for Uz, Initial residual = 1, Final residual = 0.0702602325, No Iterations 2
DILUPBiCGStab:  Solving for e, Initial residual = 0.9999984864, Final residual = 0.08610097521, No Iterations 2
GAMG:  Solving for p, Initial residual = 0.9999999993, Final residual = 0.009532166696, No Iterations 63
time step continuity errors : sum local = 4.802540198e-05, global = 2.764609308e-06, cumulative = 2.764609308e-06
pressureControl: p max 871938.4829
DILUPBiCGStab:  Solving for omega, Initial residual = 0.0001283649245, Final residual = 2.284156708e-06, No Iterations 1
DILUPBiCGStab:  Solving for k, Initial residual = 1, Final residual = 0.01041880067, No Iterations 1
ExecutionTime = 0.15 s  ClockTime = 1 s

Time = 2

DILUPBiCGStab:  Solving for Ux, Initial residual = 0.02037247361, Final residual = 0.001554812468, No Iterations 1
DILUPBiCGStab:  Solving for Uz, Initial residual = 0.6028483187, Final residual = 0.04125424075, No Iterations 1
DILUPBiCGStab:  Solving for e, Initial residual = 0.1117363918, Final residual = 0.0007511705619, No Iterations 1
GAMG:  Solving for p, Initial residual = 0.02437182954, Final residual = 0.0002416162399, No Iterations 38
time step continuity errors : sum local = 0.0005641849477, global = -0.0001221708499, cumulative = -0.0001194062406
pressureControl: p max 394756.3339
DILUPBiCGStab:  Solving for omega, Initial residual = 0.001526309157, Final residual = 0.0001315298016, No Iterations 1
DILUPBiCGStab:  Solving for k, Initial residual = 0.02935914626, Final residual = 0.0001687348273, No Iterations 1
ExecutionTime = 0.21 s  ClockTime = 1 s

Time = 3

DILUPBiCGStab:  Solving for Ux, Initial residual = 0.009561139123, Final residual = 0.0007821473429, No Iterations 1
DILUPBiCGStab:  Solving for Uz, Initial residual = 0.2188126611, Final residual = 0.02006716164, No Iterations 1
DILUPBiCGStab:  Solving for e, Initial residual = 0.06147545639, Final residual = 0.005021130123, No Iterations 1
GAMG:  Solving for p, Initial residual = 0.02323890475, Final residual = 0.0002277587635, No Iterations 61
time step continuity errors : sum local = 0.0004842559658, global = 0.000114495275, cumulative = -4.910965594e-06
pressureControl: p max 301301.0765
DILUPBiCGStab:  Solving for omega, Initial residual = 0.004992756485, Final residual = 3.677221911e-06, No Iterations 1
DILUPBiCGStab:  Solving for k, Initial residual = 0.003307873887, Final residual = 7.215578895e-05, No Iterations 1
ExecutionTime = 0.28 s  ClockTime = 1 s

Time = 4

DILUPBiCGStab:  Solving for Ux, Initial residual = 0.003188589164, Final residual = 8.668670977e-05, No Iterations 1
DILUPBiCGStab:  Solving for Uz, Initial residual = 0.1415187043, Final residual = 0.006000992211, No Iterations 1
DILUPBiCGStab:  Solving for e, Initial residual = 0.02439381386, Final residual = 0.002201169742, No Iterations 1
GAMG:  Solving for p, Initial residual = 0.03265224101, Final residual = 0.0003034393276, No Iterations 45
time step continuity errors : sum local = 0.0002371262799, global = 5.706164725e-05, cumulative = 5.215068166e-05
DILUPBiCGStab:  Solving for omega, Initial residual = 0.001381598447, Final residual = 4.221539083e-06, No Iterations 1
DILUPBiCGStab:  Solving for k, Initial residual = 0.002135797491, Final residual = 4.316306757e-05, No Iterations 1
ExecutionTime = 0.34 s  ClockTime = 1 s

Time = 5

DILUPBiCGStab:  Solving for Ux, Initial residual = 0.00370387473, Final residual = 0.0002253299242, No Iterations 1
DILUPBiCGStab:  Solving for Uz, Initial residual = 0.2665259347, Final residual = 0.0254717322, No Iterations 1
DILUPBiCGStab:  Solving for e, Initial residual = 0.03986257673, Final residual = 0.0003355267029, No Iterations 1
GAMG:  Solving for p, Initial residual = 0.06719818457, Final residual = 0.0006668009193, No Iterations 53
time step continuity errors : sum local = 0.0004519323488, global = -0.0001143427855, cumulative = -6.219210385e-05
DILUPBiCGStab:  Solving for omega, Initial residual = 0.0003472772859, Final residual = 6.966404126e-06, No Iterations 1
DILUPBiCGStab:  Solving for k, Initial residual = 0.002408058474, Final residual = 5.103977638e-05, No Iterations 1
ExecutionTime = 0.4 s  ClockTime = 1 s

Time = 6

DILUPBiCGStab:  Solving for Ux, Initial residual = 0.002020837738, Final residual = 0.0001503601043, No Iterations 1
DILUPBiCGStab:  Solving for Uz, Initial residual = 0.204940696, Final residual = 0.001774358484, No Iterations 1
DILUPBiCGStab:  Solving for e, Initial residual = 0.1732922197, Final residual = 0.01267253469, No Iterations 1
GAMG:  Solving for p, Initial residual = 0.05437218193, Final residual = 0.0005396829361, No Iterations 61
time step continuity errors : sum local = 0.0003879195702, global = -9.234074625e-05, cumulative = -0.0001545328501
DILUPBiCGStab:  Solving for omega, Initial residual = 0.0004594661532, Final residual = 5.381229248e-06, No Iterations 1
DILUPBiCGStab:  Solving for k, Initial residual = 0.002362667549, Final residual = 4.310722301e-05, No Iterations 1
ExecutionTime = 0.48 s  ClockTime = 1 s

Time = 7

DILUPBiCGStab:  Solving for Ux, Initial residual = 0.001209822175, Final residual = 6.719615911e-05, No Iterations 1
DILUPBiCGStab:  Solving for Uz, Initial residual = 0.2155389151, Final residual = 0.01260506621, No Iterations 1
DILUPBiCGStab:  Solving for e, Initial residual = 0.03379535715, Final residual = 0.001676121256, No Iterations 1
GAMG:  Solving for p, Initial residual = 0.1682141684, Final residual = 0.001659811914, No Iterations 31
time step continuity errors : sum local = 0.0003172534834, global = -8.492484229e-05, cumulative = -0.0002394576924
DILUPBiCGStab:  Solving for omega, Initial residual = 0.0004773056111, Final residual = 3.418658933e-06, No Iterations 1
DILUPBiCGStab:  Solving for k, Initial residual = 0.004127849008, Final residual = 2.551838094e-05, No Iterations 1
ExecutionTime = 0.52 s  ClockTime = 1 s

Time = 8

DILUPBiCGStab:  Solving for Ux, Initial residual = 0.001768977107, Final residual = 0.0001178672832, No Iterations 1
DILUPBiCGStab:  Solving for Uz, Initial residual = 0.1711922562, Final residual = 0.00105276334, No Iterations 1
DILUPBiCGStab:  Solving for e, Initial residual = 0.02905649209, Final residual = 0.002643015622, No Iterations 1
GAMG:  Solving for p, Initial residual = 0.05827644194, Final residual = 0.0005430916908, No Iterations 48
time step continuity errors : sum local = 0.0003875947618, global = 8.848397488e-05, cumulative = -0.0001509737175
DILUPBiCGStab:  Solving for omega, Initial residual = 0.000544587817, Final residual = 3.756484814e-06, No Iterations 1
DILUPBiCGStab:  Solving for k, Initial residual = 0.001310662664, Final residual = 9.065303779e-06, No Iterations 1
ExecutionTime = 0.58 s  ClockTime = 1 s

Time = 9

DILUPBiCGStab:  Solving for Ux, Initial residual = 0.001555053312, Final residual = 9.209599502e-05, No Iterations 1
DILUPBiCGStab:  Solving for Uz, Initial residual = 0.0965791036, Final residual = 0.000673356529, No Iterations 1
DILUPBiCGStab:  Solving for e, Initial residual = 0.0252954858, Final residual = 0.00185430284, No Iterations 1
GAMG:  Solving for p, Initial residual = 0.0681359678, Final residual = 0.0006667189993, No Iterations 50
time step continuity errors : sum local = 0.0003631865774, global = 8.803220286e-05, cumulative = -6.294151466e-05
DILUPBiCGStab:  Solving for omega, Initial residual = 0.0003838145039, Final residual = 2.379624995e-06, No Iterations 1
DILUPBiCGStab:  Solving for k, Initial residual = 0.001012265236, Final residual = 2.785845455e-06, No Iterations 1
ExecutionTime = 0.64 s  ClockTime = 1 s

Time = 10

DILUPBiCGStab:  Solving for Ux, Initial residual = 0.001193342087, Final residual = 0.0001073585169, No Iterations 1
DILUPBiCGStab:  Solving for Uz, Initial residual = 0.1069602864, Final residual = 0.008793241879, No Iterations 1
DILUPBiCGStab:  Solving for e, Initial residual = 0.01805182591, Final residual = 0.001126761162, No Iterations 1
GAMG:  Solving for p, Initial residual = 0.2577336875, Final residual = 0.002555329296, No Iterations 33
time step continuity errors : sum local = 0.0003702545083, global = -9.278625967e-05, cumulative = -0.0001557277743
DILUPBiCGStab:  Solving for omega, Initial residual = 0.000306566851, Final residual = 2.11518097e-06, No Iterations 1
DILUPBiCGStab:  Solving for k, Initial residual = 0.0008816466731, Final residual = 2.617899642e-06, No Iterations 1
ExecutionTime = 0.69 s  ClockTime = 1 s

Time = 11

DILUPBiCGStab:  Solving for Ux, Initial residual = 0.001145740356, Final residual = 8.59457572e-05, No Iterations 1
DILUPBiCGStab:  Solving for Uz, Initial residual = 0.1020931344, Final residual = 0.0008060079911, No Iterations 1
DILUPBiCGStab:  Solving for e, Initial residual = 0.01454947432, Final residual = 0.001082321839, No Iterations 1
GAMG:  Solving for p, Initial residual = 0.4480884604, Final residual = 0.004242910571, No Iterations 56
time step continuity errors : sum local = 0.0003774428227, global = -8.705004998e-05, cumulative = -0.0002427778243
DILUPBiCGStab:  Solving for omega, Initial residual = 0.0002332950932, Final residual = 2.124482702e-06, No Iterations 1
DILUPBiCGStab:  Solving for k, Initial residual = 0.0008631042169, Final residual = 2.674401015e-06, No Iterations 1
ExecutionTime = 0.76 s  ClockTime = 1 s

Time = 12

DILUPBiCGStab:  Solving for Ux, Initial residual = 0.0008110057215, Final residual = 2.909738546e-05, No Iterations 1
DILUPBiCGStab:  Solving for Uz, Initial residual = 0.08739498352, Final residual = 0.00744941001, No Iterations 1
DILUPBiCGStab:  Solving for e, Initial residual = 0.01105163453, Final residual = 0.000810428489, No Iterations 1
GAMG:  Solving for p, Initial residual = 0.280755602, Final residual = 0.002755708988, No Iterations 29
time step continuity errors : sum local = 0.0003768215842, global = 2.506439947e-06, cumulative = -0.0002402713844
DILUPBiCGStab:  Solving for omega, Initial residual = 0.0002555360984, Final residual = 1.603610289e-06, No Iterations 1
DILUPBiCGStab:  Solving for k, Initial residual = 0.0008543203776, Final residual = 3.036096052e-06, No Iterations 1
ExecutionTime = 0.8 s  ClockTime = 1 s

Time = 13

DILUPBiCGStab:  Solving for Ux, Initial residual = 0.0005905454502, Final residual = 3.987248503e-06, No Iterations 1
DILUPBiCGStab:  Solving for Uz, Initial residual = 0.08233101775, Final residual = 0.005105335555, No Iterations 1
DILUPBiCGStab:  Solving for e, Initial residual = 0.007896691379, Final residual = 0.0006667918182, No Iterations 1
GAMG:  Solving for p, Initial residual = 0.1541276754, Final residual = 0.00153815108, No Iterations 36
time step continuity errors : sum local = 0.0003944404388, global = 9.198393449e-05, cumulative = -0.0001482874499
DILUPBiCGStab:  Solving for omega, Initial residual = 0.0002834591273, Final residual = 1.803892768e-06, No Iterations 1
DILUPBiCGStab:  Solving for k, Initial residual = 0.0009198167496, Final residual = 3.620405063e-06, No Iterations 1
ExecutionTime = 0.86 s  ClockTime = 1 s

Time = 14

DILUPBiCGStab:  Solving for Ux, Initial residual = 0.0007179573263, Final residual = 5.450785649e-05, No Iterations 1
DILUPBiCGStab:  Solving for Uz, Initial residual = 0.06886903978, Final residual = 0.006385160691, No Iterations 1
DILUPBiCGStab:  Solving for e, Initial residual = 0.007513135081, Final residual = 0.0005675773638, No Iterations 1
GAMG:  Solving for p, Initial residual = 0.1840171645, Final residual = 0.001833480369, No Iterations 50
time step continuity errors : sum local = 0.0003938201928, global = 8.942312471e-05, cumulative = -5.886432516e-05
DILUPBiCGStab:  Solving for omega, Initial residual = 0.0001827967722, Final residual = 1.419919117e-06, No Iterations 1
DILUPBiCGStab:  Solving for k, Initial residual = 0.0008792929315, Final residual = 3.955807851e-06, No Iterations 1
ExecutionTime = 0.92 s  ClockTime = 1 s

Time = 15

DILUPBiCGStab:  Solving for Ux, Initial residual = 0.0005533695523, Final residual = 1.753413587e-05, No Iterations 1
DILUPBiCGStab:  Solving for Uz, Initial residual = 0.05853308229, Final residual = 0.005310161891, No Iterations 1
DILUPBiCGStab:  Solving for e, Initial residual = 0.006665406995, Final residual = 0.0004467149082, No Iterations 1
GAMG:  Solving for p, Initial residual = 0.3459600929, Final residual = 0.003424371442, No Iterations 31
time step continuity errors : sum local = 0.000396295415, global = -5.65914657e-05, cumulative = -0.0001154557909
DILUPBiCGStab:  Solving for omega, Initial residual = 0.000172670915, Final residual = 1.589931768e-06, No Iterations 1
DILUPBiCGStab:  Solving for k, Initial residual = 0.0007291542013, Final residual = 3.522826774e-06, No Iterations 1
ExecutionTime = 0.97 s  ClockTime = 1 s

Time = 16

DILUPBiCGStab:  Solving for Ux, Initial residual = 0.0004281501392, Final residual = 2.403907986e-06, No Iterations 1
DILUPBiCGStab:  Solving for Uz, Initial residual = 0.05815196284, Final residual = 0.003308562089, No Iterations 1
DILUPBiCGStab:  Solving for e, Initial residual = 0.006851488962, Final residual = 0.000587570271, No Iterations 1
GAMG:  Solving for p, Initial residual = 0.4799165807, Final residual = 0.004667888562, No Iterations 37
time step continuity errors : sum local = 0.000382776581, global = 7.174907348e-05, cumulative = -4.370671738e-05
DILUPBiCGStab:  Solving for omega, Initial residual = 0.0001938541815, Final residual = 1.971998111e-06, No Iterations 1
DILUPBiCGStab:  Solving for k, Initial residual = 0.0005071582261, Final residual = 2.941604671e-06, No Iterations 1
ExecutionTime = 1.02 s  ClockTime = 1 s

Time = 17

DILUPBiCGStab:  Solving for Ux, Initial residual = 0.0004706906081, Final residual = 2.633239329e-06, No Iterations 1
DILUPBiCGStab:  Solving for Uz, Initial residual = 0.05433344081, Final residual = 0.003306741193, No Iterations 1
DILUPBiCGStab:  Solving for e, Initial residual = 0.007667865468, Final residual = 0.000644982496, No Iterations 1
GAMG:  Solving for p, Initial residual = 0.2669509045, Final residual = 0.002496702864, No Iterations 42
time step continuity errors : sum local = 0.0003703399859, global = -9.348545554e-05, cumulative = -0.0001371921729
DILUPBiCGStab:  Solving for omega, Initial residual = 0.0001588802118, Final residual = 1.767441492e-06, No Iterations 1
DILUPBiCGStab:  Solving for k, Initial residual = 0.0003480098304, Final residual = 2.896504984e-06, No Iterations 1
ExecutionTime = 1.08 s  ClockTime = 1 s

Time = 18

DILUPBiCGStab:  Solving for Ux, Initial residual = 0.0003630429866, Final residual = 2.20309157e-05, No Iterations 1
DILUPBiCGStab:  Solving for Uz, Initial residual = 0.04252436667, Final residual = 0.002713854988, No Iterations 1
DILUPBiCGStab:  Solving for e, Initial residual = 0.007708667392, Final residual = 0.0006114546255, No Iterations 1
GAMG:  Solving for p, Initial residual = 0.1976528626, Final residual = 0.001966492963, No Iterations 29
time step continuity errors : sum local = 0.0003942071152, global = 5.961930357e-05, cumulative = -7.757286936e-05
DILUPBiCGStab:  Solving for omega, Initial residual = 0.0001310050743, Final residual = 1.733978365e-06, No Iterations 1
DILUPBiCGStab:  Solving for k, Initial residual = 0.0003347297255, Final residual = 3.368116964e-06, No Iterations 1
ExecutionTime = 1.12 s  ClockTime = 2 s

Time = 19

DILUPBiCGStab:  Solving for Ux, Initial residual = 0.0003268742885, Final residual = 2.341470768e-05, No Iterations 1
DILUPBiCGStab:  Solving for Uz, Initial residual = 0.03970200435, Final residual = 0.001537969051, No Iterations 1
DILUPBiCGStab:  Solving for e, Initial residual = 0.007922781352, Final residual = 0.0007787127843, No Iterations 1
GAMG:  Solving for p, Initial residual = 0.2124665986, Final residual = 0.002119436797, No Iterations 31
time step continuity errors : sum local = 0.0003906613963, global = 7.94990538e-05, cumulative = 1.926184444e-06
DILUPBiCGStab:  Solving for omega, Initial residual = 0.0001323016867, Final residual = 2.319385284e-06, No Iterations 1
DILUPBiCGStab:  Solving for k, Initial residual = 0.0003024696377, Final residual = 3.502938104e-06, No Iterations 1
ExecutionTime = 1.17 s  ClockTime = 2 s

Time = 20

DILUPBiCGStab:  Solving for Ux, Initial residual = 0.000365044587, Final residual = 2.141220621e-05, No Iterations 1
DILUPBiCGStab:  Solving for Uz, Initial residual = 0.04122019522, Final residual = 0.00218413424, No Iterations 1
DILUPBiCGStab:  Solving for e, Initial residual = 0.008930080663, Final residual = 4.317012055e-05, No Iterations 1
GAMG:  Solving for p, Initial residual = 0.2996448033, Final residual = 0.002814440612, No Iterations 37
time step continuity errors : sum local = 0.000365816811, global = -2.185305463e-05, cumulative = -1.992687018e-05
DILUPBiCGStab:  Solving for omega, Initial residual = 0.0001280414551, Final residual = 2.587880409e-06, No Iterations 1
DILUPBiCGStab:  Solving for k, Initial residual = 0.0002612324882, Final residual = 3.3860555e-06, No Iterations 1
ExecutionTime = 1.22 s  ClockTime = 2 s

Time = 21

DILUPBiCGStab:  Solving for Ux, Initial residual = 0.0003029326496, Final residual = 1.249425323e-05, No Iterations 1
DILUPBiCGStab:  Solving for Uz, Initial residual = 0.03735910766, Final residual = 0.002883799188, No Iterations 1
DILUPBiCGStab:  Solving for e, Initial residual = 0.009937639456, Final residual = 0.0008966603442, No Iterations 1
GAMG:  Solving for p, Initial residual = 0.3505565606, Final residual = 0.003406894707, No Iterations 27
time step continuity errors : sum local = 0.0003835826112, global = -6.045486601e-05, cumulative = -8.03817362e-05
DILUPBiCGStab:  Solving for omega, Initial residual = 9.777677702e-05, Final residual = 2.37650232e-06, No Iterations 1
DILUPBiCGStab:  Solving for k, Initial residual = 0.0002460031032, Final residual = 4.123096199e-06, No Iterations 1
ExecutionTime = 1.27 s  ClockTime = 2 s

Time = 22

DILUPBiCGStab:  Solving for Ux, Initial residual = 0.0002720350375, Final residual = 1.75024702e-05, No Iterations 1
DILUPBiCGStab:  Solving for Uz, Initial residual = 0.03669379357, Final residual = 0.002094280599, No Iterations 1
DILUPBiCGStab:  Solving for e, Initial residual = 0.01364627659, Final residual = 0.001303947078, No Iterations 1
GAMG:  Solving for p, Initial residual = 0.275430528, Final residual = 0.0027412656, No Iterations 22
time step continuity errors : sum local = 0.0003848665692, global = -6.370838339e-05, cumulative = -0.0001440901196
DILUPBiCGStab:  Solving for omega, Initial residual = 9.57616931e-05, Final residual = 2.876992186e-06, No Iterations 1
DILUPBiCGStab:  Solving for k, Initial residual = 0.0002360460533, Final residual = 4.345795943e-06, No Iterations 1
ExecutionTime = 1.31 s  ClockTime = 2 s

Time = 23

DILUPBiCGStab:  Solving for Ux, Initial residual = 0.000309484432, Final residual = 1.854396269e-05, No Iterations 1
DILUPBiCGStab:  Solving for Uz, Initial residual = 0.03675219441, Final residual = 0.001545567045, No Iterations 1
DILUPBiCGStab:  Solving for e, Initial residual = 0.02179417162, Final residual = 0.002069512327, No Iterations 1
GAMG:  Solving for p, Initial residual = 0.2034966409, Final residual = 0.002011779466, No Iterations 37
time step continuity errors : sum local = 0.0003797272403, global = 4.430100495e-05, cumulative = -9.978911464e-05
DILUPBiCGStab:  Solving for omega, Initial residual = 9.677319291e-05, Final residual = 2.945615801e-06, No Iterations 1
DILUPBiCGStab:  Solving for k, Initial residual = 0.000221315192, Final residual = 4.638501476e-06, No Iterations 1
ExecutionTime = 1.36 s  ClockTime = 2 s

Time = 24

DILUPBiCGStab:  Solving for Ux, Initial residual = 0.0002753189761, Final residual = 1.751339041e-05, No Iterations 1
DILUPBiCGStab:  Solving for Uz, Initial residual = 0.03194897935, Final residual = 0.001501379363, No Iterations 1
DILUPBiCGStab:  Solving for e, Initial residual = 0.04611609363, Final residual = 0.004396176104, No Iterations 1
GAMG:  Solving for p, Initial residual = 0.1853354741, Final residual = 0.001809822402, No Iterations 23
time step continuity errors : sum local = 0.0003840268928, global = 8.811212122e-05, cumulative = -1.167699341e-05
DILUPBiCGStab:  Solving for omega, Initial residual = 7.610737494e-05, Final residual = 2.523685631e-06, No Iterations 1
DILUPBiCGStab:  Solving for k, Initial residual = 0.000203320534, Final residual = 5.520048529e-06, No Iterations 1
ExecutionTime = 1.4 s  ClockTime = 2 s

Time = 25

DILUPBiCGStab:  Solving for Ux, Initial residual = 0.0002521601255, Final residual = 2.27411682e-05, No Iterations 1
DILUPBiCGStab:  Solving for Uz, Initial residual = 0.0280636941, Final residual = 0.00111461179, No Iterations 1
DILUPBiCGStab:  Solving for e, Initial residual = 0.03443161835, Final residual = 0.003175262254, No Iterations 1
GAMG:  Solving for p, Initial residual = 0.1976556492, Final residual = 0.001913543304, No Iterations 15
time step continuity errors : sum local = 0.0003835265831, global = -7.768697962e-05, cumulative = -8.936397303e-05
DILUPBiCGStab:  Solving for omega, Initial residual = 7.383083111e-05, Final residual = 2.660045609e-06, No Iterations 1
DILUPBiCGStab:  Solving for k, Initial residual = 0.0001979446421, Final residual = 5.935940994e-06, No Iterations 1
ExecutionTime = 1.45 s  ClockTime = 2 s

Time = 26

DILUPBiCGStab:  Solving for Ux, Initial residual = 0.0003097180863, Final residual = 1.900727363e-05, No Iterations 1
DILUPBiCGStab:  Solving for Uz, Initial residual = 0.03006565085, Final residual = 0.001110872563, No Iterations 1
DILUPBiCGStab:  Solving for e, Initial residual = 0.01896666044, Final residual = 0.001608820712, No Iterations 1
GAMG:  Solving for p, Initial residual = 0.2183913824, Final residual = 0.002131271195, No Iterations 25
time step continuity errors : sum local = 0.000381859268, global = 8.337391823e-05, cumulative = -5.990054805e-06
DILUPBiCGStab:  Solving for omega, Initial residual = 7.064429073e-05, Final residual = 2.576888703e-06, No Iterations 1
DILUPBiCGStab:  Solving for k, Initial residual = 0.0001874085033, Final residual = 6.331326192e-06, No Iterations 1
ExecutionTime = 1.5 s  ClockTime = 2 s

Time = 27

DILUPBiCGStab:  Solving for Ux, Initial residual = 0.0003011071016, Final residual = 1.426420239e-05, No Iterations 1
DILUPBiCGStab:  Solving for Uz, Initial residual = 0.02849185389, Final residual = 0.001173715644, No Iterations 1
DILUPBiCGStab:  Solving for e, Initial residual = 0.01337193797, Final residual = 0.001118709182, No Iterations 1
GAMG:  Solving for p, Initial residual = 0.2211871286, Final residual = 0.002103688712, No Iterations 25
time step continuity errors : sum local = 0.0003821777862, global = -6.981682279e-05, cumulative = -7.58068776e-05
DILUPBiCGStab:  Solving for omega, Initial residual = 5.827428753e-05, Final residual = 2.219449566e-06, No Iterations 1
DILUPBiCGStab:  Solving for k, Initial residual = 0.0001801280888, Final residual = 7.202100448e-06, No Iterations 1
ExecutionTime = 1.53 s  ClockTime = 2 s

Time = 28

DILUPBiCGStab:  Solving for Ux, Initial residual = 0.0002487637852, Final residual = 1.364051722e-05, No Iterations 1
DILUPBiCGStab:  Solving for Uz, Initial residual = 0.02635699859, Final residual = 0.0009158931693, No Iterations 1
DILUPBiCGStab:  Solving for e, Initial residual = 0.0104076237, Final residual = 0.0009070740014, No Iterations 1
GAMG:  Solving for p, Initial residual = 0.1928810827, Final residual = 0.001915050924, No Iterations 15
time step continuity errors : sum local = 0.0004038205904, global = 7.066916398e-05, cumulative = -5.137713613e-06
DILUPBiCGStab:  Solving for omega, Initial residual = 5.417989027e-05, Final residual = 2.233442753e-06, No Iterations 1
DILUPBiCGStab:  Solving for k, Initial residual = 0.0001709018525, Final residual = 7.264849876e-06, No Iterations 1
ExecutionTime = 1.57 s  ClockTime = 2 s

Time = 29

DILUPBiCGStab:  Solving for Ux, Initial residual = 0.000277521763, Final residual = 1.402651467e-05, No Iterations 1
DILUPBiCGStab:  Solving for Uz, Initial residual = 0.02783365428, Final residual = 0.0009402296105, No Iterations 1
DILUPBiCGStab:  Solving for e, Initial residual = 0.009334467876, Final residual = 0.0007954080546, No Iterations 1
GAMG:  Solving for p, Initial residual = 0.1681160961, Final residual = 0.001577166456, No Iterations 19
time step continuity errors : sum local = 0.0003781533294, global = 2.353705794e-05, cumulative = 1.839934433e-05
DILUPBiCGStab:  Solving for omega, Initial residual = 5.193570384e-05, Final residual = 2.12211556e-06, No Iterations 1
DILUPBiCGStab:  Solving for k, Initial residual = 0.0001571092232, Final residual = 7.449315971e-06, No Iterations 1
ExecutionTime = 1.61 s  ClockTime = 2 s

Time = 30

DILUPBiCGStab:  Solving for Ux, Initial residual = 0.0002865922659, Final residual = 1.292271142e-05, No Iterations 1
DILUPBiCGStab:  Solving for Uz, Initial residual = 0.02714398714, Final residual = 0.0009929477038, No Iterations 1
DILUPBiCGStab:  Solving for e, Initial residual = 0.008737480496, Final residual = 0.0006888471524, No Iterations 1
GAMG:  Solving for p, Initial residual = 0.1622237416, Final residual = 0.001594698105, No Iterations 25
time step continuity errors : sum local = 0.0004029344862, global = 3.879471683e-05, cumulative = 5.719406116e-05
DILUPBiCGStab:  Solving for omega, Initial residual = 4.481657269e-05, Final residual = 1.931501785e-06, No Iterations 1
DILUPBiCGStab:  Solving for k, Initial residual = 0.0001491363973, Final residual = 7.460871403e-06, No Iterations 1
ExecutionTime = 1.65 s  ClockTime = 2 s

Time = 31

DILUPBiCGStab:  Solving for Ux, Initial residual = 0.0002336120334, Final residual = 1.522148109e-05, No Iterations 1
DILUPBiCGStab:  Solving for Uz, Initial residual = 0.02331144332, Final residual = 0.0009090553027, No Iterations 1
DILUPBiCGStab:  Solving for e, Initial residual = 0.008100300073, Final residual = 0.0005805689982, No Iterations 1
GAMG:  Solving for p, Initial residual = 0.170042037, Final residual = 0.001579080201, No Iterations 17
time step continuity errors : sum local = 0.0003885854072, global = -8.481631397e-05, cumulative = -2.762225281e-05
DILUPBiCGStab:  Solving for omega, Initial residual = 4.142856075e-05, Final residual = 1.883786512e-06, No Iterations 1
DILUPBiCGStab:  Solving for k, Initial residual = 0.0001371403873, Final residual = 7.09116435e-06, No Iterations 1
ExecutionTime = 1.69 s  ClockTime = 2 s

Time = 32

DILUPBiCGStab:  Solving for Ux, Initial residual = 0.0002487100012, Final residual = 1.908285279e-05, No Iterations 1
DILUPBiCGStab:  Solving for Uz, Initial residual = 0.02389529257, Final residual = 0.0009995196731, No Iterations 1
DILUPBiCGStab:  Solving for e, Initial residual = 0.008779843091, Final residual = 0.0005557161569, No Iterations 1
GAMG:  Solving for p, Initial residual = 0.1751492585, Final residual = 0.00166832487, No Iterations 15
time step continuity errors : sum local = 0.0003927577954, global = -5.945202224e-05, cumulative = -8.707427505e-05
DILUPBiCGStab:  Solving for omega, Initial residual = 3.888283463e-05, Final residual = 1.810729063e-06, No Iterations 1
DILUPBiCGStab:  Solving for k, Initial residual = 0.0001322404642, Final residual = 6.972046752e-06, No Iterations 1
ExecutionTime = 1.73 s  ClockTime = 2 s

Time = 33

DILUPBiCGStab:  Solving for Ux, Initial residual = 0.0002912888266, Final residual = 1.772361542e-05, No Iterations 1
DILUPBiCGStab:  Solving for Uz, Initial residual = 0.02443713984, Final residual = 0.001135365878, No Iterations 1
DILUPBiCGStab:  Solving for e, Initial residual = 0.009944455889, Final residual = 0.0005785831955, No Iterations 1
GAMG:  Solving for p, Initial residual = 0.173259346, Final residual = 0.001670918806, No Iterations 21
time step continuity errors : sum local = 0.000393109358, global = -2.917170386e-05, cumulative = -0.0001162459789
DILUPBiCGStab:  Solving for omega, Initial residual = 3.61463081e-05, Final residual = 1.751419593e-06, No Iterations 1
DILUPBiCGStab:  Solving for k, Initial residual = 0.000126004451, Final residual = 6.352815924e-06, No Iterations 1
ExecutionTime = 1.77 s  ClockTime = 2 s

Time = 34

DILUPBiCGStab:  Solving for Ux, Initial residual = 0.0002770966686, Final residual = 1.492686747e-05, No Iterations 1
DILUPBiCGStab:  Solving for Uz, Initial residual = 0.02216596877, Final residual = 0.0009911528363, No Iterations 1
DILUPBiCGStab:  Solving for e, Initial residual = 0.01131013073, Final residual = 0.0006595637238, No Iterations 1
GAMG:  Solving for p, Initial residual = 0.1715242602, Final residual = 0.00167307991, No Iterations 23
time step continuity errors : sum local = 0.0004065259942, global = -3.624959115e-05, cumulative = -0.0001524955701
DILUPBiCGStab:  Solving for omega, Initial residual = 3.422258552e-05, Final residual = 1.793465967e-06, No Iterations 1
DILUPBiCGStab:  Solving for k, Initial residual = 0.0001167020528, Final residual = 5.69653477e-06, No Iterations 1
ExecutionTime = 1.81 s  ClockTime = 2 s

Time = 35

DILUPBiCGStab:  Solving for Ux, Initial residual = 0.0002213189196, Final residual = 1.331983176e-05, No Iterations 1
DILUPBiCGStab:  Solving for Uz, Initial residual = 0.02270315121, Final residual = 0.0007716112563, No Iterations 1
DILUPBiCGStab:  Solving for e, Initial residual = 0.01306169961, Final residual = 0.000780044879, No Iterations 1
GAMG:  Solving for p, Initial residual = 0.1621468889, Final residual = 0.001493853851, No Iterations 14
time step continuity errors : sum local = 0.0003761327659, global = 6.311247507e-05, cumulative = -8.938309499e-05
DILUPBiCGStab:  Solving for omega, Initial residual = 3.316909834e-05, Final residual = 1.805930124e-06, No Iterations 1
DILUPBiCGStab:  Solving for k, Initial residual = 0.0001087934872, Final residual = 5.162246638e-06, No Iterations 1
ExecutionTime = 1.84 s  ClockTime = 2 s

Time = 36

DILUPBiCGStab:  Solving for Ux, Initial residual = 0.0002238115083, Final residual = 1.24859162e-05, No Iterations 1
DILUPBiCGStab:  Solving for Uz, Initial residual = 0.02380749723, Final residual = 0.000816524852, No Iterations 1
DILUPBiCGStab:  Solving for e, Initial residual = 0.01630151921, Final residual = 0.0009795892124, No Iterations 1
GAMG:  Solving for p, Initial residual = 0.1543635973, Final residual = 0.001404981228, No Iterations 15
time step continuity errors : sum local = 0.0003560301571, global = 5.335566664e-05, cumulative = -3.602742835e-05
DILUPBiCGStab:  Solving for omega, Initial residual = 3.155643401e-05, Final residual = 1.688995511e-06, No Iterations 1
DILUPBiCGStab:  Solving for k, Initial residual = 0.0001042631921, Final residual = 4.72076481e-06, No Iterations 1
ExecutionTime = 1.88 s  ClockTime = 2 s

Time = 37

DILUPBiCGStab:  Solving for Ux, Initial residual = 0.0002341866393, Final residual = 1.131613985e-05, No Iterations 1
DILUPBiCGStab:  Solving for Uz, Initial residual = 0.02232615569, Final residual = 0.0008233218535, No Iterations 1
DILUPBiCGStab:  Solving for e, Initial residual = 0.02097903564, Final residual = 0.001303943487, No Iterations 1
GAMG:  Solving for p, Initial residual = 0.1585187, Final residual = 0.001553414327, No Iterations 17
time step continuity errors : sum local = 0.0003896512423, global = 3.986889336e-05, cumulative = 3.841465005e-06
DILUPBiCGStab:  Solving for omega, Initial residual = 2.978544055e-05, Final residual = 1.559156787e-06, No Iterations 1
DILUPBiCGStab:  Solving for k, Initial residual = 0.0001026254793, Final residual = 4.408669766e-06, No Iterations 1
ExecutionTime = 1.92 s  ClockTime = 2 s

Time = 38

DILUPBiCGStab:  Solving for Ux, Initial residual = 0.0002150208201, Final residual = 9.881917934e-06, No Iterations 1
DILUPBiCGStab:  Solving for Uz, Initial residual = 0.01941899311, Final residual = 0.000708460029, No Iterations 1
DILUPBiCGStab:  Solving for e, Initial residual = 0.02566654135, Final residual = 0.001756074191, No Iterations 1
GAMG:  Solving for p, Initial residual = 0.1596283726, Final residual = 0.001522331714, No Iterations 19
time step continuity errors : sum local = 0.0003757445019, global = 3.53018144e-05, cumulative = 3.914327941e-05
DILUPBiCGStab:  Solving for omega, Initial residual = 2.830433594e-05, Final residual = 1.437087515e-06, No Iterations 1
DILUPBiCGStab:  Solving for k, Initial residual = 0.0001017959994, Final residual = 4.201811363e-06, No Iterations 1
ExecutionTime = 1.95 s  ClockTime = 2 s

Time = 39

DILUPBiCGStab:  Solving for Ux, Initial residual = 0.0001945660328, Final residual = 1.07144095e-05, No Iterations 1
DILUPBiCGStab:  Solving for Uz, Initial residual = 0.01843569516, Final residual = 0.0006210109695, No Iterations 1
DILUPBiCGStab:  Solving for e, Initial residual = 0.02953183422, Final residual = 0.002268346124, No Iterations 1
GAMG:  Solving for p, Initial residual = 0.1500150177, Final residual = 0.00148225307, No Iterations 14
time step continuity errors : sum local = 0.0003572381811, global = -5.653099424e-05, cumulative = -1.738771483e-05
DILUPBiCGStab:  Solving for omega, Initial residual = 2.718172096e-05, Final residual = 1.341334196e-06, No Iterations 1
DILUPBiCGStab:  Solving for k, Initial residual = 0.0001016132762, Final residual = 4.102541025e-06, No Iterations 1
ExecutionTime = 1.99 s  ClockTime = 2 s

Time = 40

DILUPBiCGStab:  Solving for Ux, Initial residual = 0.0002005195693, Final residual = 1.100756597e-05, No Iterations 1
DILUPBiCGStab:  Solving for Uz, Initial residual = 0.01815990459, Final residual = 0.0006887809385, No Iterations 1
DILUPBiCGStab:  Solving for e, Initial residual = 0.03123556102, Final residual = 0.002562767868, No Iterations 1
GAMG:  Solving for p, Initial residual = 0.1485893416, Final residual = 0.001351424093, No Iterations 14
time step continuity errors : sum local = 0.0003203054702, global = -2.029692927e-05, cumulative = -3.76846441e-05
DILUPBiCGStab:  Solving for omega, Initial residual = 2.618784274e-05, Final residual = 1.269006346e-06, No Iterations 1
DILUPBiCGStab:  Solving for k, Initial residual = 0.000102181704, Final residual = 4.090805264e-06, No Iterations 1
ExecutionTime = 2.02 s  ClockTime = 2 s

Time = 41

DILUPBiCGStab:  Solving for Ux, Initial residual = 0.0002022878925, Final residual = 1.035172285e-05, No Iterations 1
DILUPBiCGStab:  Solving for Uz, Initial residual = 0.01744158481, Final residual = 0.0007301916727, No Iterations 1
DILUPBiCGStab:  Solving for e, Initial residual = 0.0285592296, Final residual = 0.002403573877, No Iterations 1
GAMG:  Solving for p, Initial residual = 0.1518399467, Final residual = 0.001312911269, No Iterations 12
time step continuity errors : sum local = 0.0003070729738, global = -1.695245804e-05, cumulative = -5.463710214e-05
DILUPBiCGStab:  Solving for omega, Initial residual = 2.517937084e-05, Final residual = 1.224335889e-06, No Iterations 1
DILUPBiCGStab:  Solving for k, Initial residual = 0.0001022903483, Final residual = 4.133280929e-06, No Iterations 1
ExecutionTime = 2.06 s  ClockTime = 2 s

Time = 42

DILUPBiCGStab:  Solving for Ux, Initial residual = 0.0001871006095, Final residual = 9.875776023e-06, No Iterations 1
DILUPBiCGStab:  Solving for Uz, Initial residual = 0.01665249966, Final residual = 0.0006385927282, No Iterations 1
DILUPBiCGStab:  Solving for e, Initial residual = 0.02277388139, Final residual = 0.001906722104, No Iterations 1
GAMG:  Solving for p, Initial residual = 0.1417377288, Final residual = 0.001317047611, No Iterations 15
time step continuity errors : sum local = 0.0003033822984, global = -2.74410634e-05, cumulative = -8.207816553e-05
DILUPBiCGStab:  Solving for omega, Initial residual = 2.410232048e-05, Final residual = 1.207833728e-06, No Iterations 1
DILUPBiCGStab:  Solving for k, Initial residual = 0.0001021937245, Final residual = 4.241844818e-06, No Iterations 1
ExecutionTime = 2.09 s  ClockTime = 2 s

Time = 43

DILUPBiCGStab:  Solving for Ux, Initial residual = 0.0001751063334, Final residual = 1.095239533e-05, No Iterations 1
DILUPBiCGStab:  Solving for Uz, Initial residual = 0.01685054934, Final residual = 0.0005582377308, No Iterations 1
DILUPBiCGStab:  Solving for e, Initial residual = 0.01713240758, Final residual = 0.00138069802, No Iterations 1
GAMG:  Solving for p, Initial residual = 0.1290047386, Final residual = 0.001266354389, No Iterations 14
time step continuity errors : sum local = 0.0002871777449, global = 5.980888681e-05, cumulative = -2.226927872e-05
DILUPBiCGStab:  Solving for omega, Initial residual = 2.307331112e-05, Final residual = 1.209667699e-06, No Iterations 1
DILUPBiCGStab:  Solving for k, Initial residual = 0.0001026939596, Final residual = 4.436326587e-06, No Iterations 1
ExecutionTime = 2.13 s  ClockTime = 3 s

Time = 44

DILUPBiCGStab:  Solving for Ux, Initial residual = 0.0001743141107, Final residual = 1.057019446e-05, No Iterations 1
DILUPBiCGStab:  Solving for Uz, Initial residual = 0.01646087112, Final residual = 0.0005416456525, No Iterations 1
DILUPBiCGStab:  Solving for e, Initial residual = 0.0130756577, Final residual = 0.0009806471444, No Iterations 1
GAMG:  Solving for p, Initial residual = 0.1267419792, Final residual = 0.00114402258, No Iterations 16
time step continuity errors : sum local = 0.0002570332036, global = 3.528291977e-05, cumulative = 1.301364105e-05
DILUPBiCGStab:  Solving for omega, Initial residual = 2.198234274e-05, Final residual = 1.240825457e-06, No Iterations 1
DILUPBiCGStab:  Solving for k, Initial residual = 0.0001030734174, Final residual = 4.669065959e-06, No Iterations 1
ExecutionTime = 2.16 s  ClockTime = 3 s

Time = 45

DILUPBiCGStab:  Solving for Ux, Initial residual = 0.0001699455629, Final residual = 9.595553668e-06, No Iterations 1
DILUPBiCGStab:  Solving for Uz, Initial residual = 0.01474469888, Final residual = 0.0005232363639, No Iterations 1
DILUPBiCGStab:  Solving for e, Initial residual = 0.01023456454, Final residual = 0.0007053275154, No Iterations 1
GAMG:  Solving for p, Initial residual = 0.1236038641, Final residual = 0.001226962093, No Iterations 14
time step continuity errors : sum local = 0.0002720842568, global = 3.14426398e-05, cumulative = 4.445628085e-05
DILUPBiCGStab:  Solving for omega, Initial residual = 2.08842812e-05, Final residual = 1.273004408e-06, No Iterations 1
DILUPBiCGStab:  Solving for k, Initial residual = 0.0001032738501, Final residual = 4.924321902e-06, No Iterations 1
ExecutionTime = 2.2 s  ClockTime = 3 s

Time = 46

DILUPBiCGStab:  Solving for Ux, Initial residual = 0.000157870418, Final residual = 9.233333156e-06, No Iterations 1
DILUPBiCGStab:  Solving for Uz, Initial residual = 0.013395599, Final residual = 0.0004646539085, No Iterations 1
DILUPBiCGStab:  Solving for e, Initial residual = 0.008162004988, Final residual = 0.0005162194334, No Iterations 1
GAMG:  Solving for p, Initial residual = 0.1116719619, Final residual = 0.00098423459, No Iterations 13
time step continuity errors : sum local = 0.0002140670053, global = 6.487884673e-06, cumulative = 5.094416553e-05
DILUPBiCGStab:  Solving for omega, Initial residual = 1.990090361e-05, Final residual = 1.277444376e-06, No Iterations 1
DILUPBiCGStab:  Solving for k, Initial residual = 0.000103172167, Final residual = 5.14583049e-06, No Iterations 1
ExecutionTime = 2.23 s  ClockTime = 3 s

Time = 47

DILUPBiCGStab:  Solving for Ux, Initial residual = 0.0001473274311, Final residual = 9.611141314e-06, No Iterations 1
DILUPBiCGStab:  Solving for Uz, Initial residual = 0.01437500064, Final residual = 0.0004410411635, No Iterations 1
DILUPBiCGStab:  Solving for e, Initial residual = 0.006792913066, Final residual = 0.0004017020297, No Iterations 1
GAMG:  Solving for p, Initial residual = 0.1012983922, Final residual = 0.0009517682362, No Iterations 15
time step continuity errors : sum local = 0.0002031068768, global = 8.937677366e-06, cumulative = 5.988184289e-05
DILUPBiCGStab:  Solving for omega, Initial residual = 1.896741236e-05, Final residual = 1.248644206e-06, No Iterations 1
DILUPBiCGStab:  Solving for k, Initial residual = 0.0001022965321, Final residual = 5.304335915e-06, No Iterations 1
ExecutionTime = 2.26 s  ClockTime = 3 s

Time = 48

DILUPBiCGStab:  Solving for Ux, Initial residual = 0.0001452554982, Final residual = 9.647916143e-06, No Iterations 1
DILUPBiCGStab:  Solving for Uz, Initial residual = 0.01435401909, Final residual = 0.0004654788224, No Iterations 1
DILUPBiCGStab:  Solving for e, Initial residual = 0.005841726613, Final residual = 0.0003298574587, No Iterations 1
GAMG:  Solving for p, Initial residual = 0.09694384463, Final residual = 0.0009294325878, No Iterations 15
time step continuity errors : sum local = 0.0001958662572, global = 1.627672811e-05, cumulative = 7.6158571e-05
DILUPBiCGStab:  Solving for omega, Initial residual = 1.800288124e-05, Final residual = 1.20868697e-06, No Iterations 1
DILUPBiCGStab:  Solving for k, Initial residual = 0.0001005620513, Final residual = 5.421856668e-06, No Iterations 1
ExecutionTime = 2.3 s  ClockTime = 3 s

Time = 49

DILUPBiCGStab:  Solving for Ux, Initial residual = 0.000141227783, Final residual = 9.057967591e-06, No Iterations 1
DILUPBiCGStab:  Solving for Uz, Initial residual = 0.01325528622, Final residual = 0.0004820722645, No Iterations 1
DILUPBiCGStab:  Solving for e, Initial residual = 0.00503408901, Final residual = 0.0002808007346, No Iterations 1
GAMG:  Solving for p, Initial residual = 0.09269790526, Final residual = 0.0008847781103, No Iterations 15
time step continuity errors : sum local = 0.0001851952343, global = -1.114101296e-05, cumulative = 6.501755804e-05
DILUPBiCGStab:  Solving for omega, Initial residual = 1.703461589e-05, Final residual = 1.165607423e-06, No Iterations 1
DILUPBiCGStab:  Solving for k, Initial residual = 9.803260159e-05, Final residual = 5.507111851e-06, No Iterations 1
ExecutionTime = 2.33 s  ClockTime = 3 s

Time = 50

DILUPBiCGStab:  Solving for Ux, Initial residual = 0.00013440388, Final residual = 8.821270881e-06, No Iterations 1
DILUPBiCGStab:  Solving for Uz, Initial residual = 0.01265333796, Final residual = 0.0004367620983, No Iterations 1
DILUPBiCGStab:  Solving for e, Initial residual = 0.00429881098, Final residual = 0.0002419704967, No Iterations 1
GAMG:  Solving for p, Initial residual = 0.08314919496, Final residual = 0.0007598317582, No Iterations 11
time step continuity errors : sum local = 0.0001581974013, global = -3.954690261e-06, cumulative = 6.106286778e-05
DILUPBiCGStab:  Solving for omega, Initial residual = 1.61626254e-05, Final residual = 1.140273516e-06, No Iterations 1
DILUPBiCGStab:  Solving for k, Initial residual = 9.521733333e-05, Final residual = 5.575910757e-06, No Iterations 1
ExecutionTime = 2.44 s  ClockTime = 3 s

Time = 51

DILUPBiCGStab:  Solving for Ux, Initial residual = 0.0001307187498, Final residual = 8.777313192e-06, No Iterations 1
DILUPBiCGStab:  Solving for Uz, Initial residual = 0.01237952391, Final residual = 0.0003910739243, No Iterations 1
DILUPBiCGStab:  Solving for e, Initial residual = 0.003731319815, Final residual = 0.0002141340238, No Iterations 1
GAMG:  Solving for p, Initial residual = 0.07600033915, Final residual = 0.0006680368388, No Iterations 17
time step continuity errors : sum local = 0.0001383143795, global = -6.94895385e-06, cumulative = 5.411391393e-05
DILUPBiCGStab:  Solving for omega, Initial residual = 1.5405616e-05, Final residual = 1.119565652e-06, No Iterations 1
DILUPBiCGStab:  Solving for k, Initial residual = 9.216628075e-05, Final residual = 5.598527637e-06, No Iterations 1
ExecutionTime = 2.48 s  ClockTime = 3 s

Time = 52

DILUPBiCGStab:  Solving for Ux, Initial residual = 0.0001290399701, Final residual = 8.497435828e-06, No Iterations 1
DILUPBiCGStab:  Solving for Uz, Initial residual = 0.01116409244, Final residual = 0.0003694066679, No Iterations 1
DILUPBiCGStab:  Solving for e, Initial residual = 0.003283473922, Final residual = 0.0001931584047, No Iterations 1
GAMG:  Solving for p, Initial residual = 0.07198994482, Final residual = 0.0005729347573, No Iterations 15
time step continuity errors : sum local = 0.0001178939913, global = -2.461319094e-06, cumulative = 5.165259483e-05
DILUPBiCGStab:  Solving for omega, Initial residual = 1.464390931e-05, Final residual = 1.092854737e-06, No Iterations 1
DILUPBiCGStab:  Solving for k, Initial residual = 8.886323775e-05, Final residual = 5.559504376e-06, No Iterations 1
ExecutionTime = 2.52 s  ClockTime = 3 s

Time = 53

DILUPBiCGStab:  Solving for Ux, Initial residual = 0.0001223517334, Final residual = 7.608766426e-06, No Iterations 1
DILUPBiCGStab:  Solving for Uz, Initial residual = 0.01004518887, Final residual = 0.0003480594514, No Iterations 1
DILUPBiCGStab:  Solving for e, Initial residual = 0.002912156143, Final residual = 0.0001774206775, No Iterations 1
GAMG:  Solving for p, Initial residual = 0.06730280468, Final residual = 0.0004230161275, No Iterations 13
time step continuity errors : sum local = 8.639322003e-05, global = 3.503667091e-06, cumulative = 5.515626193e-05
DILUPBiCGStab:  Solving for omega, Initial residual = 1.392841822e-05, Final residual = 1.064530146e-06, No Iterations 1
DILUPBiCGStab:  Solving for k, Initial residual = 8.540421315e-05, Final residual = 5.455693295e-06, No Iterations 1
ExecutionTime = 2.55 s  ClockTime = 3 s

Time = 54

DILUPBiCGStab:  Solving for Ux, Initial residual = 0.0001130588857, Final residual = 6.793163289e-06, No Iterations 1
DILUPBiCGStab:  Solving for Uz, Initial residual = 0.01004304365, Final residual = 0.0003049050407, No Iterations 1
DILUPBiCGStab:  Solving for e, Initial residual = 0.002590848532, Final residual = 0.0001633938405, No Iterations 1
GAMG:  Solving for p, Initial residual = 0.06223479254, Final residual = 0.0004366908858, No Iterations 13
time step continuity errors : sum local = 8.873557706e-05, global = 1.224211826e-06, cumulative = 5.638047375e-05
DILUPBiCGStab:  Solving for omega, Initial residual = 1.320278761e-05, Final residual = 1.035815514e-06, No Iterations 1
DILUPBiCGStab:  Solving for k, Initial residual = 8.196308281e-05, Final residual = 5.295338654e-06, No Iterations 1
ExecutionTime = 2.59 s  ClockTime = 3 s

Time = 55

DILUPBiCGStab:  Solving for Ux, Initial residual = 0.0001026224399, Final residual = 6.465810813e-06, No Iterations 1
DILUPBiCGStab:  Solving for Uz, Initial residual = 0.009754034922, Final residual = 0.000273328417, No Iterations 1
DILUPBiCGStab:  Solving for e, Initial residual = 0.002313705422, Final residual = 0.0001502184001, No Iterations 1
GAMG:  Solving for p, Initial residual = 0.05857275833, Final residual = 0.0005717907908, No Iterations 13
time step continuity errors : sum local = 0.0001160463313, global = 4.851690952e-06, cumulative = 6.12321647e-05
DILUPBiCGStab:  Solving for omega, Initial residual = 1.24911588e-05, Final residual = 1.002010417e-06, No Iterations 1
DILUPBiCGStab:  Solving for k, Initial residual = 7.850614882e-05, Final residual = 5.096317199e-06, No Iterations 1
ExecutionTime = 2.62 s  ClockTime = 3 s

Time = 56

DILUPBiCGStab:  Solving for Ux, Initial residual = 9.607104352e-05, Final residual = 6.232385931e-06, No Iterations 1
DILUPBiCGStab:  Solving for Uz, Initial residual = 0.008968505291, Final residual = 0.0002501352091, No Iterations 1
DILUPBiCGStab:  Solving for e, Initial residual = 0.002079643507, Final residual = 0.0001379953731, No Iterations 1
GAMG:  Solving for p, Initial residual = 0.05419345117, Final residual = 0.0004743074803, No Iterations 17
time step continuity errors : sum local = 9.632163015e-05, global = -6.553603636e-06, cumulative = 5.467856107e-05
DILUPBiCGStab:  Solving for omega, Initial residual = 1.174267874e-05, Final residual = 9.635182183e-07, No Iterations 1
DILUPBiCGStab:  Solving for k, Initial residual = 7.509774091e-05, Final residual = 4.860925757e-06, No Iterations 1
ExecutionTime = 2.65 s  ClockTime = 3 s

Time = 57

DILUPBiCGStab:  Solving for Ux, Initial residual = 9.541336106e-05, Final residual = 5.754101686e-06, No Iterations 1
DILUPBiCGStab:  Solving for Uz, Initial residual = 0.00836313816, Final residual = 0.0002334685454, No Iterations 1
DILUPBiCGStab:  Solving for e, Initial residual = 0.001871480138, Final residual = 0.0001262348477, No Iterations 1
GAMG:  Solving for p, Initial residual = 0.05098681259, Final residual = 0.0005060956982, No Iterations 11
time step continuity errors : sum local = 0.000102810867, global = -2.894637042e-06, cumulative = 5.178392402e-05
DILUPBiCGStab:  Solving for omega, Initial residual = 1.099457728e-05, Final residual = 9.222741818e-07, No Iterations 1
DILUPBiCGStab:  Solving for k, Initial residual = 7.145180273e-05, Final residual = 4.577236465e-06, No Iterations 1
ExecutionTime = 2.68 s  ClockTime = 3 s

Time = 58

DILUPBiCGStab:  Solving for Ux, Initial residual = 9.595362922e-05, Final residual = 5.427207112e-06, No Iterations 1
DILUPBiCGStab:  Solving for Uz, Initial residual = 0.007798166617, Final residual = 0.0002166233273, No Iterations 1
DILUPBiCGStab:  Solving for e, Initial residual = 0.001695540414, Final residual = 0.0001151462023, No Iterations 1
GAMG:  Solving for p, Initial residual = 0.04913501965, Final residual = 0.0004675288094, No Iterations 11
time step continuity errors : sum local = 9.493893578e-05, global = -2.268536394e-06, cumulative = 4.951538763e-05
DILUPBiCGStab:  Solving for omega, Initial residual = 1.031400474e-05, Final residual = 8.775206414e-07, No Iterations 1
DILUPBiCGStab:  Solving for k, Initial residual = 6.771052624e-05, Final residual = 4.278840353e-06, No Iterations 1
ExecutionTime = 2.72 s  ClockTime = 3 s

Time = 59

DILUPBiCGStab:  Solving for Ux, Initial residual = 9.246298111e-05, Final residual = 5.47565319e-06, No Iterations 1
DILUPBiCGStab:  Solving for Uz, Initial residual = 0.007180473716, Final residual = 0.0002010027722, No Iterations 1
DILUPBiCGStab:  Solving for e, Initial residual = 0.001551790338, Final residual = 0.0001058845189, No Iterations 1
GAMG:  Solving for p, Initial residual = 0.04788056484, Final residual = 0.000427205954, No Iterations 13
time step continuity errors : sum local = 8.673423933e-05, global = -2.934620304e-06, cumulative = 4.658076733e-05
DILUPBiCGStab:  Solving for omega, Initial residual = 9.752454161e-06, Final residual = 8.351594064e-07, No Iterations 1
DILUPBiCGStab:  Solving for k, Initial residual = 6.377274518e-05, Final residual = 3.972491565e-06, No Iterations 1
ExecutionTime = 2.75 s  ClockTime = 3 s

Time = 60

DILUPBiCGStab:  Solving for Ux, Initial residual = 8.607308036e-05, Final residual = 5.574554763e-06, No Iterations 1
DILUPBiCGStab:  Solving for Uz, Initial residual = 0.00652597905, Final residual = 0.0001950883202, No Iterations 1
DILUPBiCGStab:  Solving for e, Initial residual = 0.001434328812, Final residual = 9.815044274e-05, No Iterations 1
GAMG:  Solving for p, Initial residual = 0.04660402211, Final residual = 0.0004294512343, No Iterations 15
time step continuity errors : sum local = 8.723457768e-05, global = 1.068231613e-05, cumulative = 5.726308345e-05
DILUPBiCGStab:  Solving for omega, Initial residual = 9.282075607e-06, Final residual = 7.955669231e-07, No Iterations 1
DILUPBiCGStab:  Solving for k, Initial residual = 5.977870272e-05, Final residual = 3.688718177e-06, No Iterations 1
ExecutionTime = 2.79 s  ClockTime = 3 s

Time = 61

DILUPBiCGStab:  Solving for Ux, Initial residual = 8.01952829e-05, Final residual = 5.268575416e-06, No Iterations 1
DILUPBiCGStab:  Solving for Uz, Initial residual = 0.005763638225, Final residual = 0.0001827922452, No Iterations 1
DILUPBiCGStab:  Solving for e, Initial residual = 0.001334112006, Final residual = 9.172611652e-05, No Iterations 1
GAMG:  Solving for p, Initial residual = 0.0448907249, Final residual = 0.0003150208008, No Iterations 13
time step continuity errors : sum local = 6.404107589e-05, global = 2.12500004e-06, cumulative = 5.938808349e-05
DILUPBiCGStab:  Solving for omega, Initial residual = 8.841565947e-06, Final residual = 7.597285653e-07, No Iterations 1
DILUPBiCGStab:  Solving for k, Initial residual = 5.564057829e-05, Final residual = 3.421548726e-06, No Iterations 1
ExecutionTime = 2.82 s  ClockTime = 3 s

Time = 62

DILUPBiCGStab:  Solving for Ux, Initial residual = 7.45885564e-05, Final residual = 4.849383148e-06, No Iterations 1
DILUPBiCGStab:  Solving for Uz, Initial residual = 0.005269389364, Final residual = 0.0001600623446, No Iterations 1
DILUPBiCGStab:  Solving for e, Initial residual = 0.001240126495, Final residual = 8.61084881e-05, No Iterations 1
GAMG:  Solving for p, Initial residual = 0.04331577805, Final residual = 0.0003654466431, No Iterations 11
time step continuity errors : sum local = 7.43706058e-05, global = 2.980146177e-06, cumulative = 6.236822967e-05
DILUPBiCGStab:  Solving for omega, Initial residual = 8.421134591e-06, Final residual = 7.273774015e-07, No Iterations 1
DILUPBiCGStab:  Solving for k, Initial residual = 5.15529202e-05, Final residual = 3.193600266e-06, No Iterations 1
ExecutionTime = 2.85 s  ClockTime = 3 s

Time = 63

DILUPBiCGStab:  Solving for Ux, Initial residual = 6.930177424e-05, Final residual = 4.625922993e-06, No Iterations 1
DILUPBiCGStab:  Solving for Uz, Initial residual = 0.005260478886, Final residual = 0.0001495748964, No Iterations 1
DILUPBiCGStab:  Solving for e, Initial residual = 0.001143875481, Final residual = 8.050343649e-05, No Iterations 1
GAMG:  Solving for p, Initial residual = 0.04318636667, Final residual = 0.0004252636405, No Iterations 12
time step continuity errors : sum local = 8.655564631e-05, global = -1.789477127e-05, cumulative = 4.44734584e-05
DILUPBiCGStab:  Solving for omega, Initial residual = 8.042754934e-06, Final residual = 6.99112295e-07, No Iterations 1
DILUPBiCGStab:  Solving for k, Initial residual = 4.764412251e-05, Final residual = 2.999646522e-06, No Iterations 1
ExecutionTime = 2.89 s  ClockTime = 3 s

Time = 64

DILUPBiCGStab:  Solving for Ux, Initial residual = 6.519587619e-05, Final residual = 4.614636612e-06, No Iterations 1
DILUPBiCGStab:  Solving for Uz, Initial residual = 0.005127075493, Final residual = 0.0001450564106, No Iterations 1
DILUPBiCGStab:  Solving for e, Initial residual = 0.001051690919, Final residual = 7.505205742e-05, No Iterations 1
GAMG:  Solving for p, Initial residual = 0.04411208021, Final residual = 0.0003760684927, No Iterations 10
time step continuity errors : sum local = 7.651454315e-05, global = 4.629395821e-06, cumulative = 4.910285422e-05
DILUPBiCGStab:  Solving for omega, Initial residual = 7.710540364e-06, Final residual = 6.769018385e-07, No Iterations 1
DILUPBiCGStab:  Solving for k, Initial residual = 4.403687153e-05, Final residual = 2.838824609e-06, No Iterations 1
ExecutionTime = 2.92 s  ClockTime = 3 s

Time = 65

DILUPBiCGStab:  Solving for Ux, Initial residual = 6.308503418e-05, Final residual = 4.440361695e-06, No Iterations 1
DILUPBiCGStab:  Solving for Uz, Initial residual = 0.004835880205, Final residual = 0.0001488891364, No Iterations 1
DILUPBiCGStab:  Solving for e, Initial residual = 0.0009787954703, Final residual = 7.082596622e-05, No Iterations 1
GAMG:  Solving for p, Initial residual = 0.04349647602, Final residual = 0.0004236286397, No Iterations 11
time step continuity errors : sum local = 8.616711256e-05, global = -1.052198137e-05, cumulative = 3.858087285e-05
DILUPBiCGStab:  Solving for omega, Initial residual = 7.411359915e-06, Final residual = 6.559971388e-07, No Iterations 1
DILUPBiCGStab:  Solving for k, Initial residual = 4.078664084e-05, Final residual = 2.708548627e-06, No Iterations 1
ExecutionTime = 2.95 s  ClockTime = 3 s

Time = 66

DILUPBiCGStab:  Solving for Ux, Initial residual = 6.295361871e-05, Final residual = 4.220657778e-06, No Iterations 1
DILUPBiCGStab:  Solving for Uz, Initial residual = 0.00460160948, Final residual = 0.0001509119994, No Iterations 1
DILUPBiCGStab:  Solving for e, Initial residual = 0.0009117453443, Final residual = 6.735646372e-05, No Iterations 1
GAMG:  Solving for p, Initial residual = 0.0415372022, Final residual = 0.0003432331169, No Iterations 11
time step continuity errors : sum local = 6.972107319e-05, global = -4.622866798e-06, cumulative = 3.395800605e-05
DILUPBiCGStab:  Solving for omega, Initial residual = 7.142316596e-06, Final residual = 6.367716544e-07, No Iterations 1
DILUPBiCGStab:  Solving for k, Initial residual = 3.796444054e-05, Final residual = 2.603596374e-06, No Iterations 1
ExecutionTime = 2.98 s  ClockTime = 3 s

Time = 67

DILUPBiCGStab:  Solving for Ux, Initial residual = 6.128551525e-05, Final residual = 4.227928508e-06, No Iterations 1
DILUPBiCGStab:  Solving for Uz, Initial residual = 0.004452233067, Final residual = 0.0001485841637, No Iterations 1
DILUPBiCGStab:  Solving for e, Initial residual = 0.0008462119807, Final residual = 6.329071799e-05, No Iterations 1
GAMG:  Solving for p, Initial residual = 0.04125050419, Final residual = 0.0003930675365, No Iterations 9
time step continuity errors : sum local = 7.97119325e-05, global = -7.130144293e-06, cumulative = 2.682786176e-05
DILUPBiCGStab:  Solving for omega, Initial residual = 6.890535598e-06, Final residual = 6.175503239e-07, No Iterations 1
DILUPBiCGStab:  Solving for k, Initial residual = 3.551003261e-05, Final residual = 2.518172393e-06, No Iterations 1
ExecutionTime = 3.01 s  ClockTime = 3 s

Time = 68

DILUPBiCGStab:  Solving for Ux, Initial residual = 5.791955966e-05, Final residual = 4.351970281e-06, No Iterations 1
DILUPBiCGStab:  Solving for Uz, Initial residual = 0.004277074178, Final residual = 0.0001420388407, No Iterations 1
DILUPBiCGStab:  Solving for e, Initial residual = 0.0007863202062, Final residual = 5.975187e-05, No Iterations 1
GAMG:  Solving for p, Initial residual = 0.04259939639, Final residual = 0.0004077533707, No Iterations 8
time step continuity errors : sum local = 8.278214374e-05, global = 1.629304904e-05, cumulative = 4.312091079e-05
DILUPBiCGStab:  Solving for omega, Initial residual = 6.651898875e-06, Final residual = 5.997337888e-07, No Iterations 1
DILUPBiCGStab:  Solving for k, Initial residual = 3.334115511e-05, Final residual = 2.460571283e-06, No Iterations 1
ExecutionTime = 3.04 s  ClockTime = 3 s

Time = 69

DILUPBiCGStab:  Solving for Ux, Initial residual = 5.354304456e-05, Final residual = 4.360145622e-06, No Iterations 1
DILUPBiCGStab:  Solving for Uz, Initial residual = 0.004001286353, Final residual = 0.0001359233574, No Iterations 1
DILUPBiCGStab:  Solving for e, Initial residual = 0.0007361061328, Final residual = 5.680557045e-05, No Iterations 1
GAMG:  Solving for p, Initial residual = 0.04255493627, Final residual = 0.0004063221042, No Iterations 8
time step continuity errors : sum local = 8.263976164e-05, global = -7.495697783e-06, cumulative = 3.562521301e-05
DILUPBiCGStab:  Solving for omega, Initial residual = 6.421495243e-06, Final residual = 5.834096298e-07, No Iterations 1
DILUPBiCGStab:  Solving for k, Initial residual = 3.140136524e-05, Final residual = 2.421564785e-06, No Iterations 1
ExecutionTime = 3.07 s  ClockTime = 3 s

Time = 70

DILUPBiCGStab:  Solving for Ux, Initial residual = 5.161480533e-05, Final residual = 4.115088016e-06, No Iterations 1
DILUPBiCGStab:  Solving for Uz, Initial residual = 0.003571964636, Final residual = 0.000131069461, No Iterations 1
DILUPBiCGStab:  Solving for e, Initial residual = 0.0006918132815, Final residual = 5.456584291e-05, No Iterations 1
GAMG:  Solving for p, Initial residual = 0.04076470162, Final residual = 0.0003734483717, No Iterations 9
time step continuity errors : sum local = 7.602856537e-05, global = 1.535619189e-05, cumulative = 5.09814049e-05
DILUPBiCGStab:  Solving for omega, Initial residual = 6.172242184e-06, Final residual = 5.676310186e-07, No Iterations 1
DILUPBiCGStab:  Solving for k, Initial residual = 2.966095294e-05, Final residual = 2.393924426e-06, No Iterations 1
ExecutionTime = 3.1 s  ClockTime = 4 s

Time = 71

DILUPBiCGStab:  Solving for Ux, Initial residual = 4.962682715e-05, Final residual = 3.672060218e-06, No Iterations 1
DILUPBiCGStab:  Solving for Uz, Initial residual = 0.003444173982, Final residual = 0.0001228673045, No Iterations 1
DILUPBiCGStab:  Solving for e, Initial residual = 0.0006525471303, Final residual = 5.251819055e-05, No Iterations 1
GAMG:  Solving for p, Initial residual = 0.04056058111, Final residual = 0.0003770336302, No Iterations 8
time step continuity errors : sum local = 7.672167839e-05, global = -9.324176714e-06, cumulative = 4.165722818e-05
DILUPBiCGStab:  Solving for omega, Initial residual = 5.917980645e-06, Final residual = 5.512803345e-07, No Iterations 1
DILUPBiCGStab:  Solving for k, Initial residual = 2.813458203e-05, Final residual = 2.36897317e-06, No Iterations 1
ExecutionTime = 3.13 s  ClockTime = 4 s

Time = 72

DILUPBiCGStab:  Solving for Ux, Initial residual = 4.839955698e-05, Final residual = 3.412673106e-06, No Iterations 1
DILUPBiCGStab:  Solving for Uz, Initial residual = 0.003503023537, Final residual = 0.0001102989601, No Iterations 1
DILUPBiCGStab:  Solving for e, Initial residual = 0.0006123976709, Final residual = 5.059711994e-05, No Iterations 1
GAMG:  Solving for p, Initial residual = 0.04178603101, Final residual = 0.0003956371017, No Iterations 7
time step continuity errors : sum local = 8.056596831e-05, global = 1.761129025e-05, cumulative = 5.926851844e-05
DILUPBiCGStab:  Solving for omega, Initial residual = 5.666913858e-06, Final residual = 5.339076213e-07, No Iterations 1
DILUPBiCGStab:  Solving for k, Initial residual = 2.680398208e-05, Final residual = 2.341776393e-06, No Iterations 1
ExecutionTime = 3.16 s  ClockTime = 4 s

Time = 73

DILUPBiCGStab:  Solving for Ux, Initial residual = 4.661781816e-05, Final residual = 3.384581573e-06, No Iterations 1
DILUPBiCGStab:  Solving for Uz, Initial residual = 0.003453583298, Final residual = 0.0001055679146, No Iterations 1
DILUPBiCGStab:  Solving for e, Initial residual = 0.000572036565, Final residual = 4.844352561e-05, No Iterations 1
GAMG:  Solving for p, Initial residual = 0.04240443574, Final residual = 0.0003879681358, No Iterations 6
time step continuity errors : sum local = 7.910785715e-05, global = -2.988057538e-06, cumulative = 5.62804609e-05
DILUPBiCGStab:  Solving for omega, Initial residual = 5.432993824e-06, Final residual = 5.168923978e-07, No Iterations 1
DILUPBiCGStab:  Solving for k, Initial residual = 2.56898974e-05, Final residual = 2.307153348e-06, No Iterations 1
ExecutionTime = 3.19 s  ClockTime = 4 s

Time = 74

DILUPBiCGStab:  Solving for Ux, Initial residual = 4.701234527e-05, Final residual = 3.385439958e-06, No Iterations 1
DILUPBiCGStab:  Solving for Uz, Initial residual = 0.003457969425, Final residual = 0.000102086915, No Iterations 1
DILUPBiCGStab:  Solving for e, Initial residual = 0.0005379774039, Final residual = 4.680829139e-05, No Iterations 1
GAMG:  Solving for p, Initial residual = 0.04107309004, Final residual = 0.0003587015457, No Iterations 6
time step continuity errors : sum local = 7.312207582e-05, global = -2.150740037e-06, cumulative = 5.412972086e-05
DILUPBiCGStab:  Solving for omega, Initial residual = 5.205694094e-06, Final residual = 5.00552168e-07, No Iterations 1
DILUPBiCGStab:  Solving for k, Initial residual = 2.468339136e-05, Final residual = 2.260432225e-06, No Iterations 1
ExecutionTime = 3.22 s  ClockTime = 4 s

Time = 75

DILUPBiCGStab:  Solving for Ux, Initial residual = 4.70406909e-05, Final residual = 3.39376439e-06, No Iterations 1
DILUPBiCGStab:  Solving for Uz, Initial residual = 0.003475188088, Final residual = 0.0001020056092, No Iterations 1
DILUPBiCGStab:  Solving for e, Initial residual = 0.0005066610542, Final residual = 4.545382637e-05, No Iterations 1
GAMG:  Solving for p, Initial residual = 0.04113889447, Final residual = 0.0003140383336, No Iterations 6
time step continuity errors : sum local = 6.39244469e-05, global = -2.301055365e-06, cumulative = 5.18286655e-05
DILUPBiCGStab:  Solving for omega, Initial residual = 4.989037248e-06, Final residual = 4.860300441e-07, No Iterations 1
DILUPBiCGStab:  Solving for k, Initial residual = 2.375762914e-05, Final residual = 2.200792068e-06, No Iterations 1
ExecutionTime = 3.24 s  ClockTime = 4 s

Time = 76

DILUPBiCGStab:  Solving for Ux, Initial residual = 4.590884992e-05, Final residual = 3.394009041e-06, No Iterations 1
DILUPBiCGStab:  Solving for Uz, Initial residual = 0.003409224097, Final residual = 0.0001020120699, No Iterations 1
DILUPBiCGStab:  Solving for e, Initial residual = 0.0004773120381, Final residual = 4.406727575e-05, No Iterations 1
GAMG:  Solving for p, Initial residual = 0.04324043665, Final residual = 0.0003723359694, No Iterations 6
time step continuity errors : sum local = 7.581950866e-05, global = 5.871721732e-06, cumulative = 5.770038723e-05
DILUPBiCGStab:  Solving for omega, Initial residual = 4.776810412e-06, Final residual = 4.730064751e-07, No Iterations 1
DILUPBiCGStab:  Solving for k, Initial residual = 2.293992512e-05, Final residual = 2.135992036e-06, No Iterations 1
ExecutionTime = 3.27 s  ClockTime = 4 s

Time = 77

DILUPBiCGStab:  Solving for Ux, Initial residual = 4.413067617e-05, Final residual = 3.322209966e-06, No Iterations 1
DILUPBiCGStab:  Solving for Uz, Initial residual = 0.003235265883, Final residual = 9.900732206e-05, No Iterations 1
DILUPBiCGStab:  Solving for e, Initial residual = 0.0004495389334, Final residual = 4.28716775e-05, No Iterations 1
GAMG:  Solving for p, Initial residual = 0.04382007705, Final residual = 0.0003987303461, No Iterations 6
time step continuity errors : sum local = 8.131045037e-05, global = 6.232719684e-06, cumulative = 6.393310691e-05
DILUPBiCGStab:  Solving for omega, Initial residual = 4.568394512e-06, Final residual = 3.307376479e-08, No Iterations 1
DILUPBiCGStab:  Solving for k, Initial residual = 2.222661672e-05, Final residual = 2.068882972e-06, No Iterations 1
ExecutionTime = 3.3 s  ClockTime = 4 s

Time = 78

DILUPBiCGStab:  Solving for Ux, Initial residual = 4.260465506e-05, Final residual = 3.188677919e-06, No Iterations 1
DILUPBiCGStab:  Solving for Uz, Initial residual = 0.003055146369, Final residual = 9.339675918e-05, No Iterations 1
DILUPBiCGStab:  Solving for e, Initial residual = 0.0004287650771, Final residual = 4.233429773e-05, No Iterations 1
GAMG:  Solving for p, Initial residual = 0.04235767685, Final residual = 0.0003519305291, No Iterations 6
time step continuity errors : sum local = 7.179551706e-05, global = -7.873190728e-06, cumulative = 5.605991618e-05
DILUPBiCGStab:  Solving for omega, Initial residual = 4.427324029e-06, Final residual = 4.149725609e-07, No Iterations 1
DILUPBiCGStab:  Solving for k, Initial residual = 2.158204734e-05, Final residual = 1.997197315e-06, No Iterations 1
ExecutionTime = 3.33 s  ClockTime = 4 s

Time = 79

DILUPBiCGStab:  Solving for Ux, Initial residual = 4.236652655e-05, Final residual = 2.975856114e-06, No Iterations 1
DILUPBiCGStab:  Solving for Uz, Initial residual = 0.003024009316, Final residual = 8.625272958e-05, No Iterations 1
DILUPBiCGStab:  Solving for e, Initial residual = 0.0004126999253, Final residual = 2.200112896e-06, No Iterations 1
GAMG:  Solving for p, Initial residual = 0.04275562246, Final residual = 0.0003909989508, No Iterations 6
time step continuity errors : sum local = 7.983027012e-05, global = -5.850459301e-06, cumulative = 5.020945688e-05
DILUPBiCGStab:  Solving for omega, Initial residual = 4.21541475e-06, Final residual = 3.119871869e-08, No Iterations 1
DILUPBiCGStab:  Solving for k, Initial residual = 2.106280695e-05, Final residual = 1.932962495e-06, No Iterations 1
ExecutionTime = 3.36 s  ClockTime = 4 s

Time = 80

DILUPBiCGStab:  Solving for Ux, Initial residual = 4.105214477e-05, Final residual = 2.877671019e-06, No Iterations 1
DILUPBiCGStab:  Solving for Uz, Initial residual = 0.002931356753, Final residual = 8.081067096e-05, No Iterations 1
DILUPBiCGStab:  Solving for e, Initial residual = 0.0003919257991, Final residual = 3.755683897e-05, No Iterations 1
GAMG:  Solving for p, Initial residual = 0.04421865405, Final residual = 0.0004211969631, No Iterations 6
time step continuity errors : sum local = 8.615285921e-05, global = -1.167786717e-05, cumulative = 3.853158971e-05
DILUPBiCGStab:  Solving for omega, Initial residual = 4.085559462e-06, Final residual = 3.909287157e-07, No Iterations 1
DILUPBiCGStab:  Solving for k, Initial residual = 2.06379663e-05, Final residual = 1.872023177e-06, No Iterations 1
ExecutionTime = 3.38 s  ClockTime = 4 s

Time = 81

DILUPBiCGStab:  Solving for Ux, Initial residual = 3.991503365e-05, Final residual = 2.929945913e-06, No Iterations 1
DILUPBiCGStab:  Solving for Uz, Initial residual = 0.00290467664, Final residual = 7.615893797e-05, No Iterations 1
DILUPBiCGStab:  Solving for e, Initial residual = 0.0003684656567, Final residual = 1.825118033e-06, No Iterations 1
GAMG:  Solving for p, Initial residual = 0.04416275773, Final residual = 0.0004178207632, No Iterations 7
time step continuity errors : sum local = 8.558113223e-05, global = 1.333221511e-05, cumulative = 5.186380482e-05
DILUPBiCGStab:  Solving for omega, Initial residual = 3.892852331e-06, Final residual = 2.939116475e-08, No Iterations 1
DILUPBiCGStab:  Solving for k, Initial residual = 2.028858882e-05, Final residual = 1.818637221e-06, No Iterations 1
ExecutionTime = 3.42 s  ClockTime = 4 s

Time = 82

DILUPBiCGStab:  Solving for Ux, Initial residual = 4.07615042e-05, Final residual = 2.927774945e-06, No Iterations 1
DILUPBiCGStab:  Solving for Uz, Initial residual = 0.002961925662, Final residual = 7.30118469e-05, No Iterations 1
DILUPBiCGStab:  Solving for e, Initial residual = 0.0003514632428, Final residual = 3.481749341e-05, No Iterations 1
GAMG:  Solving for p, Initial residual = 0.04270190147, Final residual = 0.0003680688489, No Iterations 6
time step continuity errors : sum local = 7.538142786e-05, global = 3.724652319e-06, cumulative = 5.558845714e-05
DILUPBiCGStab:  Solving for omega, Initial residual = 3.776953457e-06, Final residual = 3.7465246e-07, No Iterations 1
DILUPBiCGStab:  Solving for k, Initial residual = 1.998708902e-05, Final residual = 1.768626565e-06, No Iterations 1
ExecutionTime = 3.45 s  ClockTime = 4 s

Time = 83

DILUPBiCGStab:  Solving for Ux, Initial residual = 4.221019346e-05, Final residual = 2.937135933e-06, No Iterations 1
DILUPBiCGStab:  Solving for Uz, Initial residual = 0.002968358804, Final residual = 6.905658968e-05, No Iterations 1
DILUPBiCGStab:  Solving for e, Initial residual = 0.0003369871779, Final residual = 1.588416064e-06, No Iterations 1
GAMG:  Solving for p, Initial residual = 0.04283357516, Final residual = 0.0004018552289, No Iterations 6
time step continuity errors : sum local = 8.226951068e-05, global = 9.252174289e-06, cumulative = 6.484063143e-05
DILUPBiCGStab:  Solving for omega, Initial residual = 3.602954279e-06, Final residual = 2.774172717e-08, No Iterations 1
DILUPBiCGStab:  Solving for k, Initial residual = 1.976204595e-05, Final residual = 1.725966177e-06, No Iterations 1
ExecutionTime = 3.47 s  ClockTime = 4 s

Time = 84

DILUPBiCGStab:  Solving for Ux, Initial residual = 4.171233261e-05, Final residual = 2.996191264e-06, No Iterations 1
DILUPBiCGStab:  Solving for Uz, Initial residual = 0.002825897006, Final residual = 6.5674008e-05, No Iterations 1
DILUPBiCGStab:  Solving for e, Initial residual = 0.0003228363838, Final residual = 1.572442283e-06, No Iterations 1
GAMG:  Solving for p, Initial residual = 0.04352113243, Final residual = 0.0003972545414, No Iterations 7
time step continuity errors : sum local = 8.135907834e-05, global = -5.68304605e-06, cumulative = 5.915758538e-05
DILUPBiCGStab:  Solving for omega, Initial residual = 3.498542238e-06, Final residual = 2.812398046e-08, No Iterations 1
DILUPBiCGStab:  Solving for k, Initial residual = 1.958662454e-05, Final residual = 1.689377993e-06, No Iterations 1
ExecutionTime = 3.5 s  ClockTime = 4 s

Time = 85

DILUPBiCGStab:  Solving for Ux, Initial residual = 3.941882817e-05, Final residual = 3.036924892e-06, No Iterations 1
DILUPBiCGStab:  Solving for Uz, Initial residual = 0.002658707693, Final residual = 6.355107051e-05, No Iterations 1
DILUPBiCGStab:  Solving for e, Initial residual = 0.0003113643036, Final residual = 3.018415185e-05, No Iterations 1
GAMG:  Solving for p, Initial residual = 0.04266599713, Final residual = 0.0003877237314, No Iterations 7
time step continuity errors : sum local = 7.933378715e-05, global = -4.384967837e-06, cumulative = 5.477261754e-05
DILUPBiCGStab:  Solving for omega, Initial residual = 3.372069501e-06, Final residual = 2.760092506e-08, No Iterations 1
DILUPBiCGStab:  Solving for k, Initial residual = 1.944318732e-05, Final residual = 1.662967882e-06, No Iterations 1
ExecutionTime = 3.53 s  ClockTime = 4 s

Time = 86

DILUPBiCGStab:  Solving for Ux, Initial residual = 3.832034851e-05, Final residual = 2.955645168e-06, No Iterations 1
DILUPBiCGStab:  Solving for Uz, Initial residual = 0.002506410509, Final residual = 6.168890209e-05, No Iterations 1
DILUPBiCGStab:  Solving for e, Initial residual = 0.0003044912118, Final residual = 1.416668966e-06, No Iterations 1
GAMG:  Solving for p, Initial residual = 0.04082224127, Final residual = 0.0003725257783, No Iterations 7
time step continuity errors : sum local = 7.605130805e-05, global = -6.940626293e-06, cumulative = 4.783199125e-05
DILUPBiCGStab:  Solving for omega, Initial residual = 3.249986661e-06, Final residual = 2.701356632e-08, No Iterations 1
DILUPBiCGStab:  Solving for k, Initial residual = 1.934300089e-05, Final residual = 1.644539195e-06, No Iterations 1
ExecutionTime = 3.56 s  ClockTime = 4 s

Time = 87

DILUPBiCGStab:  Solving for Ux, Initial residual = 3.753648586e-05, Final residual = 2.842088351e-06, No Iterations 1
DILUPBiCGStab:  Solving for Uz, Initial residual = 0.002320430032, Final residual = 5.904262675e-05, No Iterations 1
DILUPBiCGStab:  Solving for e, Initial residual = 0.0002974451013, Final residual = 2.944803758e-05, No Iterations 1
GAMG:  Solving for p, Initial residual = 0.04032870063, Final residual = 0.0003871834098, No Iterations 6
time step continuity errors : sum local = 7.887547009e-05, global = 9.448411943e-06, cumulative = 5.728040319e-05
DILUPBiCGStab:  Solving for omega, Initial residual = 3.134117968e-06, Final residual = 2.639816633e-08, No Iterations 1
[...]
DILUPBiCGStab:  Solving for Uz, Initial residual = 1.612890079e-06, Final residual = 8.49914799e-08, No Iterations 1
DILUPBiCGStab:  Solving for e, Initial residual = 1.024218235e-05, Final residual = 9.70159295e-08, No Iterations 1
GAMG:  Solving for p, Initial residual = 7.104011812e-07, Final residual = 9.600311504e-09, No Iterations 19
time step continuity errors : sum local = 1.781645415e-09, global = 4.868594032e-10, cumulative = 7.768084814e-05
DILUPBiCGStab:  Solving for omega, Initial residual = 1.542883358e-08, Final residual = 1.463305442e-10, No Iterations 1
DILUPBiCGStab:  Solving for k, Initial residual = 6.427766038e-07, Final residual = 5.835831719e-09, No Iterations 1
ExecutionTime = 59.58 s  ClockTime = 60 s

Time = 1488

DILUPBiCGStab:  Solving for Ux, Initial residual = 1.159685872e-06, Final residual = 1.107892691e-08, No Iterations 1
DILUPBiCGStab:  Solving for Uz, Initial residual = 1.610222064e-06, Final residual = 8.484784275e-08, No Iterations 1
DILUPBiCGStab:  Solving for e, Initial residual = 1.023074351e-05, Final residual = 9.69075033e-08, No Iterations 1
GAMG:  Solving for p, Initial residual = 7.091250088e-07, Final residual = 9.596999953e-09, No Iterations 19
time step continuity errors : sum local = 1.78098362e-09, global = 4.868453714e-10, cumulative = 7.768133498e-05
DILUPBiCGStab:  Solving for omega, Initial residual = 1.539765346e-08, Final residual = 1.46036248e-10, No Iterations 1
DILUPBiCGStab:  Solving for k, Initial residual = 6.420681664e-07, Final residual = 5.8296049e-09, No Iterations 1
ExecutionTime = 59.61 s  ClockTime = 60 s

Time = 1489

DILUPBiCGStab:  Solving for Ux, Initial residual = 1.158559112e-06, Final residual = 1.106786455e-08, No Iterations 1
DILUPBiCGStab:  Solving for Uz, Initial residual = 1.607603809e-06, Final residual = 8.470221482e-08, No Iterations 1
DILUPBiCGStab:  Solving for e, Initial residual = 1.021934873e-05, Final residual = 9.679899258e-08, No Iterations 1
GAMG:  Solving for p, Initial residual = 7.076913079e-07, Final residual = 9.594954123e-09, No Iterations 19
time step continuity errors : sum local = 1.780519985e-09, global = 4.866808191e-10, cumulative = 7.768182166e-05
DILUPBiCGStab:  Solving for omega, Initial residual = 1.536658573e-08, Final residual = 1.457426632e-10, No Iterations 1
DILUPBiCGStab:  Solving for k, Initial residual = 6.413608596e-07, Final residual = 5.823387668e-09, No Iterations 1
ExecutionTime = 59.65 s  ClockTime = 60 s

Time = 1490

DILUPBiCGStab:  Solving for Ux, Initial residual = 1.157433362e-06, Final residual = 1.105681398e-08, No Iterations 1
DILUPBiCGStab:  Solving for Uz, Initial residual = 1.6054197e-06, Final residual = 8.456659221e-08, No Iterations 1
DILUPBiCGStab:  Solving for e, Initial residual = 1.02080107e-05, Final residual = 9.669040477e-08, No Iterations 1
GAMG:  Solving for p, Initial residual = 7.063511499e-07, Final residual = 9.58982059e-09, No Iterations 19
time step continuity errors : sum local = 1.779555029e-09, global = 4.86584402e-10, cumulative = 7.768230825e-05
DILUPBiCGStab:  Solving for omega, Initial residual = 1.533556886e-08, Final residual = 1.454497187e-10, No Iterations 1
DILUPBiCGStab:  Solving for k, Initial residual = 6.406546767e-07, Final residual = 5.817179999e-09, No Iterations 1
ExecutionTime = 59.69 s  ClockTime = 60 s

Time = 1491

DILUPBiCGStab:  Solving for Ux, Initial residual = 1.156308636e-06, Final residual = 1.104577442e-08, No Iterations 1
DILUPBiCGStab:  Solving for Uz, Initial residual = 1.603009363e-06, Final residual = 8.44268846e-08, No Iterations 1
DILUPBiCGStab:  Solving for e, Initial residual = 1.019668296e-05, Final residual = 9.658178455e-08, No Iterations 1
GAMG:  Solving for p, Initial residual = 7.04995794e-07, Final residual = 9.585985179e-09, No Iterations 19
time step continuity errors : sum local = 1.778724777e-09, global = 4.863891372e-10, cumulative = 7.768279464e-05
DILUPBiCGStab:  Solving for omega, Initial residual = 1.530460278e-08, Final residual = 1.451580359e-10, No Iterations 1
DILUPBiCGStab:  Solving for k, Initial residual = 6.399496115e-07, Final residual = 5.810981943e-09, No Iterations 1
ExecutionTime = 59.73 s  ClockTime = 60 s

Time = 1492

DILUPBiCGStab:  Solving for Ux, Initial residual = 1.155184998e-06, Final residual = 1.103474639e-08, No Iterations 1
DILUPBiCGStab:  Solving for Uz, Initial residual = 1.600401157e-06, Final residual = 8.428428546e-08, No Iterations 1
DILUPBiCGStab:  Solving for e, Initial residual = 1.018537896e-05, Final residual = 9.647329314e-08, No Iterations 1
GAMG:  Solving for p, Initial residual = 7.03692492e-07, Final residual = 9.579849787e-09, No Iterations 19
time step continuity errors : sum local = 1.777859245e-09, global = 4.861579375e-10, cumulative = 7.768328079e-05
DILUPBiCGStab:  Solving for omega, Initial residual = 1.527368738e-08, Final residual = 1.448668695e-10, No Iterations 1
DILUPBiCGStab:  Solving for k, Initial residual = 6.392456605e-07, Final residual = 5.804793336e-09, No Iterations 1
ExecutionTime = 59.77 s  ClockTime = 60 s

Time = 1493

DILUPBiCGStab:  Solving for Ux, Initial residual = 1.154062481e-06, Final residual = 1.102373079e-08, No Iterations 1
DILUPBiCGStab:  Solving for Uz, Initial residual = 1.597941163e-06, Final residual = 8.414572211e-08, No Iterations 1
DILUPBiCGStab:  Solving for e, Initial residual = 1.017405333e-05, Final residual = 9.636514829e-08, No Iterations 1
GAMG:  Solving for p, Initial residual = 7.024527433e-07, Final residual = 9.573194148e-09, No Iterations 19
time step continuity errors : sum local = 1.776472456e-09, global = 4.857450261e-10, cumulative = 7.768376654e-05
DILUPBiCGStab:  Solving for omega, Initial residual = 1.524282323e-08, Final residual = 1.445761856e-10, No Iterations 1
DILUPBiCGStab:  Solving for k, Initial residual = 6.385428268e-07, Final residual = 5.798614117e-09, No Iterations 1
ExecutionTime = 59.81 s  ClockTime = 60 s

Time = 1494

DILUPBiCGStab:  Solving for Ux, Initial residual = 1.152941061e-06, Final residual = 1.101272806e-08, No Iterations 1
DILUPBiCGStab:  Solving for Uz, Initial residual = 1.595621344e-06, Final residual = 8.400913486e-08, No Iterations 1
DILUPBiCGStab:  Solving for e, Initial residual = 1.016274858e-05, Final residual = 9.625749272e-08, No Iterations 1
GAMG:  Solving for p, Initial residual = 7.012323093e-07, Final residual = 9.565902984e-09, No Iterations 19
time step continuity errors : sum local = 1.775243057e-09, global = 4.856380293e-10, cumulative = 7.768425218e-05
DILUPBiCGStab:  Solving for omega, Initial residual = 1.52120745e-08, Final residual = 1.442860061e-10, No Iterations 1
DILUPBiCGStab:  Solving for k, Initial residual = 6.378411061e-07, Final residual = 5.792444261e-09, No Iterations 1
ExecutionTime = 59.85 s  ClockTime = 60 s

Time = 1495

DILUPBiCGStab:  Solving for Ux, Initial residual = 1.151820789e-06, Final residual = 1.100173878e-08, No Iterations 1
DILUPBiCGStab:  Solving for Uz, Initial residual = 1.59316374e-06, Final residual = 8.38675672e-08, No Iterations 1
DILUPBiCGStab:  Solving for e, Initial residual = 1.01514574e-05, Final residual = 9.614980782e-08, No Iterations 1
GAMG:  Solving for p, Initial residual = 7.000135671e-07, Final residual = 9.559551192e-09, No Iterations 19
time step continuity errors : sum local = 1.774019822e-09, global = 4.852497571e-10, cumulative = 7.768473743e-05
DILUPBiCGStab:  Solving for omega, Initial residual = 1.518141778e-08, Final residual = 1.43996299e-10, No Iterations 1
DILUPBiCGStab:  Solving for k, Initial residual = 6.371404896e-07, Final residual = 5.786283758e-09, No Iterations 1
ExecutionTime = 59.89 s  ClockTime = 60 s

Time = 1496

DILUPBiCGStab:  Solving for Ux, Initial residual = 1.150701605e-06, Final residual = 1.099076211e-08, No Iterations 1
DILUPBiCGStab:  Solving for Uz, Initial residual = 1.590619735e-06, Final residual = 8.372403394e-08, No Iterations 1
DILUPBiCGStab:  Solving for e, Initial residual = 1.014015628e-05, Final residual = 9.604208737e-08, No Iterations 1
GAMG:  Solving for p, Initial residual = 6.987925396e-07, Final residual = 9.552935642e-09, No Iterations 19
time step continuity errors : sum local = 1.772774085e-09, global = 4.84880722e-10, cumulative = 7.768522231e-05
DILUPBiCGStab:  Solving for omega, Initial residual = 1.515081161e-08, Final residual = 1.437080186e-10, No Iterations 1
DILUPBiCGStab:  Solving for k, Initial residual = 6.364409901e-07, Final residual = 5.780132607e-09, No Iterations 1
ExecutionTime = 59.93 s  ClockTime = 60 s

Time = 1497

DILUPBiCGStab:  Solving for Ux, Initial residual = 1.149583523e-06, Final residual = 1.097979789e-08, No Iterations 1
DILUPBiCGStab:  Solving for Uz, Initial residual = 1.588234774e-06, Final residual = 8.358541739e-08, No Iterations 1
DILUPBiCGStab:  Solving for e, Initial residual = 1.012884666e-05, Final residual = 9.593477378e-08, No Iterations 1
GAMG:  Solving for p, Initial residual = 6.974972878e-07, Final residual = 9.544881141e-09, No Iterations 19
time step continuity errors : sum local = 1.771213308e-09, global = 4.846227792e-10, cumulative = 7.768570693e-05
DILUPBiCGStab:  Solving for omega, Initial residual = 1.512025565e-08, Final residual = 1.434202976e-10, No Iterations 1
DILUPBiCGStab:  Solving for k, Initial residual = 6.357426055e-07, Final residual = 5.773990771e-09, No Iterations 1
ExecutionTime = 59.98 s  ClockTime = 60 s

Time = 1498

DILUPBiCGStab:  Solving for Ux, Initial residual = 1.148466562e-06, Final residual = 1.096884645e-08, No Iterations 1
DILUPBiCGStab:  Solving for Uz, Initial residual = 1.585886145e-06, Final residual = 8.34480601e-08, No Iterations 1
DILUPBiCGStab:  Solving for e, Initial residual = 1.011757369e-05, Final residual = 9.582742817e-08, No Iterations 1
GAMG:  Solving for p, Initial residual = 6.96093754e-07, Final residual = 9.537675742e-09, No Iterations 19
time step continuity errors : sum local = 1.769803802e-09, global = 4.841401417e-10, cumulative = 7.768619107e-05
DILUPBiCGStab:  Solving for omega, Initial residual = 1.508979806e-08, Final residual = 1.431330606e-10, No Iterations 1
DILUPBiCGStab:  Solving for k, Initial residual = 6.350453223e-07, Final residual = 5.76785822e-09, No Iterations 1
ExecutionTime = 60.02 s  ClockTime = 60 s

Time = 1499

DILUPBiCGStab:  Solving for Ux, Initial residual = 1.14735067e-06, Final residual = 1.095790769e-08, No Iterations 1
DILUPBiCGStab:  Solving for Uz, Initial residual = 1.583439688e-06, Final residual = 8.330852064e-08, No Iterations 1
DILUPBiCGStab:  Solving for e, Initial residual = 1.010630591e-05, Final residual = 9.571991777e-08, No Iterations 1
GAMG:  Solving for p, Initial residual = 6.94641134e-07, Final residual = 9.530462526e-09, No Iterations 19
time step continuity errors : sum local = 1.768684047e-09, global = 4.83976565e-10, cumulative = 7.768667505e-05
DILUPBiCGStab:  Solving for omega, Initial residual = 1.505946794e-08, Final residual = 1.428465788e-10, No Iterations 1
DILUPBiCGStab:  Solving for k, Initial residual = 6.343491531e-07, Final residual = 5.761734918e-09, No Iterations 1
ExecutionTime = 60.06 s  ClockTime = 60 s

Time = 1500

DILUPBiCGStab:  Solving for Ux, Initial residual = 1.146235879e-06, Final residual = 1.094698218e-08, No Iterations 1
DILUPBiCGStab:  Solving for Uz, Initial residual = 1.580949232e-06, Final residual = 8.316776102e-08, No Iterations 1
DILUPBiCGStab:  Solving for e, Initial residual = 1.009502138e-05, Final residual = 9.561285626e-08, No Iterations 1
GAMG:  Solving for p, Initial residual = 6.93162891e-07, Final residual = 9.524408438e-09, No Iterations 19
time step continuity errors : sum local = 1.76742269e-09, global = 4.837727305e-10, cumulative = 7.768715882e-05
DILUPBiCGStab:  Solving for omega, Initial residual = 1.502918682e-08, Final residual = 1.425614554e-10, No Iterations 1
DILUPBiCGStab:  Solving for k, Initial residual = 6.336540971e-07, Final residual = 5.755620846e-09, No Iterations 1
ExecutionTime = 60.18 s  ClockTime = 61 s

Time = 1501

DILUPBiCGStab:  Solving for Ux, Initial residual = 1.145122163e-06, Final residual = 1.09360695e-08, No Iterations 1
DILUPBiCGStab:  Solving for Uz, Initial residual = 1.578594947e-06, Final residual = 8.303036683e-08, No Iterations 1
DILUPBiCGStab:  Solving for e, Initial residual = 1.008380474e-05, Final residual = 9.550582099e-08, No Iterations 1
GAMG:  Solving for p, Initial residual = 6.916626447e-07, Final residual = 9.517297542e-09, No Iterations 19
time step continuity errors : sum local = 1.766170798e-09, global = 4.834624036e-10, cumulative = 7.768764228e-05
DILUPBiCGStab:  Solving for omega, Initial residual = 1.499902524e-08, Final residual = 1.422768007e-10, No Iterations 1
DILUPBiCGStab:  Solving for k, Initial residual = 6.329601375e-07, Final residual = 5.749516075e-09, No Iterations 1
ExecutionTime = 60.23 s  ClockTime = 61 s

Time = 1502

DILUPBiCGStab:  Solving for Ux, Initial residual = 1.144009573e-06, Final residual = 1.092516924e-08, No Iterations 1
DILUPBiCGStab:  Solving for Uz, Initial residual = 1.576212489e-06, Final residual = 8.289183926e-08, No Iterations 1
DILUPBiCGStab:  Solving for e, Initial residual = 1.007261543e-05, Final residual = 9.539933449e-08, No Iterations 1
GAMG:  Solving for p, Initial residual = 6.901828746e-07, Final residual = 9.511744432e-09, No Iterations 19
time step continuity errors : sum local = 1.765213376e-09, global = 4.831383327e-10, cumulative = 7.768812542e-05
DILUPBiCGStab:  Solving for omega, Initial residual = 1.496899243e-08, Final residual = 1.419936632e-10, No Iterations 1
DILUPBiCGStab:  Solving for k, Initial residual = 6.322672669e-07, Final residual = 5.74342055e-09, No Iterations 1
ExecutionTime = 60.26 s  ClockTime = 61 s

Time = 1503

DILUPBiCGStab:  Solving for Ux, Initial residual = 1.142898083e-06, Final residual = 1.091428163e-08, No Iterations 1
DILUPBiCGStab:  Solving for Uz, Initial residual = 1.573769526e-06, Final residual = 8.275176594e-08, No Iterations 1
DILUPBiCGStab:  Solving for e, Initial residual = 1.006159934e-05, Final residual = 9.529347875e-08, No Iterations 1
GAMG:  Solving for p, Initial residual = 6.887236889e-07, Final residual = 9.505687579e-09, No Iterations 19
time step continuity errors : sum local = 1.763954644e-09, global = 4.830850671e-10, cumulative = 7.768860851e-05
DILUPBiCGStab:  Solving for omega, Initial residual = 1.493913931e-08, Final residual = 1.417114941e-10, No Iterations 1
DILUPBiCGStab:  Solving for k, Initial residual = 6.315754772e-07, Final residual = 5.737334199e-09, No Iterations 1
ExecutionTime = 60.3 s  ClockTime = 61 s

Time = 1504

DILUPBiCGStab:  Solving for Ux, Initial residual = 1.141787672e-06, Final residual = 1.090340624e-08, No Iterations 1
DILUPBiCGStab:  Solving for Uz, Initial residual = 1.571331452e-06, Final residual = 8.261215932e-08, No Iterations 1
DILUPBiCGStab:  Solving for e, Initial residual = 1.005069136e-05, Final residual = 9.518846671e-08, No Iterations 1
GAMG:  Solving for p, Initial residual = 6.87297193e-07, Final residual = 9.49947536e-09, No Iterations 19
time step continuity errors : sum local = 1.762833139e-09, global = 4.82685216e-10, cumulative = 7.768909119e-05
DILUPBiCGStab:  Solving for omega, Initial residual = 1.490954825e-08, Final residual = 1.41431288e-10, No Iterations 1
DILUPBiCGStab:  Solving for k, Initial residual = 6.308847623e-07, Final residual = 5.731257123e-09, No Iterations 1
ExecutionTime = 60.35 s  ClockTime = 61 s

Time = 1505

DILUPBiCGStab:  Solving for Ux, Initial residual = 1.14067828e-06, Final residual = 1.089254295e-08, No Iterations 1
DILUPBiCGStab:  Solving for Uz, Initial residual = 1.568967214e-06, Final residual = 8.2475124e-08, No Iterations 1
DILUPBiCGStab:  Solving for e, Initial residual = 1.003977411e-05, Final residual = 9.508290118e-08, No Iterations 1
GAMG:  Solving for p, Initial residual = 6.859068801e-07, Final residual = 9.49346841e-09, No Iterations 19
time step continuity errors : sum local = 1.761728144e-09, global = 4.824383329e-10, cumulative = 7.768957363e-05
DILUPBiCGStab:  Solving for omega, Initial residual = 1.488004022e-08, Final residual = 1.411516402e-10, No Iterations 1
DILUPBiCGStab:  Solving for k, Initial residual = 6.301951198e-07, Final residual = 5.725189235e-09, No Iterations 1
ExecutionTime = 60.39 s  ClockTime = 61 s

Time = 1506

DILUPBiCGStab:  Solving for Ux, Initial residual = 1.139569942e-06, Final residual = 1.088169208e-08, No Iterations 1
DILUPBiCGStab:  Solving for Uz, Initial residual = 1.566587592e-06, Final residual = 8.233783055e-08, No Iterations 1
DILUPBiCGStab:  Solving for e, Initial residual = 1.002885581e-05, Final residual = 9.497810358e-08, No Iterations 1
GAMG:  Solving for p, Initial residual = 6.845777769e-07, Final residual = 9.485055257e-09, No Iterations 19
time step continuity errors : sum local = 1.760239743e-09, global = 4.821478413e-10, cumulative = 7.769005578e-05
DILUPBiCGStab:  Solving for omega, Initial residual = 1.485057776e-08, Final residual = 1.408724283e-10, No Iterations 1
DILUPBiCGStab:  Solving for k, Initial residual = 6.295065472e-07, Final residual = 5.719130443e-09, No Iterations 1
ExecutionTime = 60.43 s  ClockTime = 61 s

Time = 1507

DILUPBiCGStab:  Solving for Ux, Initial residual = 1.138462684e-06, Final residual = 1.087085351e-08, No Iterations 1
DILUPBiCGStab:  Solving for Uz, Initial residual = 1.564174802e-06, Final residual = 8.219559196e-08, No Iterations 1
DILUPBiCGStab:  Solving for e, Initial residual = 1.001794104e-05, Final residual = 9.487481092e-08, No Iterations 1
GAMG:  Solving for p, Initial residual = 6.833249998e-07, Final residual = 9.476912933e-09, No Iterations 19
time step continuity errors : sum local = 1.75884287e-09, global = 4.818196329e-10, cumulative = 7.76905376e-05
DILUPBiCGStab:  Solving for omega, Initial residual = 1.482116144e-08, Final residual = 1.405936506e-10, No Iterations 1
DILUPBiCGStab:  Solving for k, Initial residual = 6.288190419e-07, Final residual = 5.713080726e-09, No Iterations 1
ExecutionTime = 60.47 s  ClockTime = 61 s

Time = 1508

DILUPBiCGStab:  Solving for Ux, Initial residual = 1.137356353e-06, Final residual = 1.086002545e-08, No Iterations 1
DILUPBiCGStab:  Solving for Uz, Initial residual = 1.561777939e-06, Final residual = 8.204886977e-08, No Iterations 1
DILUPBiCGStab:  Solving for e, Initial residual = 1.000700769e-05, Final residual = 9.477145457e-08, No Iterations 1
GAMG:  Solving for p, Initial residual = 6.820670453e-07, Final residual = 9.469926718e-09, No Iterations 19
time step continuity errors : sum local = 1.757436153e-09, global = 4.813725469e-10, cumulative = 7.769101897e-05
DILUPBiCGStab:  Solving for omega, Initial residual = 1.47917907e-08, Final residual = 1.403170698e-10, No Iterations 1
DILUPBiCGStab:  Solving for k, Initial residual = 6.281326011e-07, Final residual = 5.707040054e-09, No Iterations 1
ExecutionTime = 60.5 s  ClockTime = 61 s

Time = 1509

DILUPBiCGStab:  Solving for Ux, Initial residual = 1.136250987e-06, Final residual = 1.084920778e-08, No Iterations 1
DILUPBiCGStab:  Solving for Uz, Initial residual = 1.559427224e-06, Final residual = 8.190976544e-08, No Iterations 1
DILUPBiCGStab:  Solving for e, Initial residual = 9.996060504e-06, Final residual = 9.46679837e-08, No Iterations 1
GAMG:  Solving for p, Initial residual = 6.808678056e-07, Final residual = 9.461581365e-09, No Iterations 19
time step continuity errors : sum local = 1.755870841e-09, global = 4.810093557e-10, cumulative = 7.769149998e-05
DILUPBiCGStab:  Solving for omega, Initial residual = 1.47624661e-08, Final residual = 1.400409386e-10, No Iterations 1
DILUPBiCGStab:  Solving for k, Initial residual = 6.274472222e-07, Final residual = 5.701008407e-09, No Iterations 1
ExecutionTime = 60.55 s  ClockTime = 61 s


SIMPLE solution converged in 1509 iterations

End

